



         NASA-GLENN CHEMICAL EQUILIBRIUM PROGRAM CEA2, FEBRUARY 5, 2004
                   BY  BONNIE MCBRIDE AND SANFORD GORDON
      REFS: NASA RP-1311, PART I, 1994 AND NASA RP-1311, PART II, 1996

 *******************************************************************************

  
 ### CEA analysis performed on Sat 11-Mar-2023 07:09:37
  
 # Problem Type: "Rocket" (Infinite Area Combustor)
  
 prob case=_______________7113 ro equilibrium
  
 # Pressure (1 value):
 p,bar= 125
 # Supersonic Area Ratio (12 values):
 supar= 2, 3, 4, 5, 10, 15, 20, 30, 40, 50, 100, 150
  
 # Oxidizer/Fuel Wt. ratio (21 values):
 o/f= 2, 2.1, 2.2, 2.3, 2.4, 2.5, 2.6, 2.7, 2.8, 2.9, 3, 3.1, 3.2, 3.3, 3.4, 3.5, 3.6, 3.7, 3.8, 3.9, 4
  
 # You selected the following fuels and oxidizers:
 reac
 fuel CH4               wt%=100.0000  t,k= 161.000
 oxid O2(L)             wt%=100.0000
  
 # You selected these options for output:
 # short version of output
 output short
 # Proportions of any products will be expressed as Mass Fractions.
 output massf
 # Heat will be expressed as siunits
 output siunits
 # Transport properties calculated
 output transport
  
  
 # Input prepared by this script:/var/www/sites/cearun.grc.nasa.gov/cgi-bin/CEARU
 N/prepareInputFile.cgi
  
 ### IMPORTANT:  The following line is the end of your CEA input file!
 end

              THEORETICAL ROCKET PERFORMANCE ASSUMING EQUILIBRIUM

           COMPOSITION DURING EXPANSION FROM INFINITE AREA COMBUSTOR

 Pin =  1813.0 PSIA
 CASE = _______________

             REACTANT                    WT FRACTION      ENERGY      TEMP
                                          (SEE NOTE)     KJ/KG-MOL      K  
 FUEL        CH4                          1.0000000    -79266.074    161.000
 OXIDANT     O2(L)                        1.0000000    -12979.000     90.170

 O/F=    2.00000  %FUEL= 33.333333  R,EQ.RATIO= 1.994632  PHI,EQ.RATIO= 1.994632

                 CHAMBER   THROAT     EXIT     EXIT     EXIT     EXIT     EXIT     EXIT
 Pinf/P            1.0000   1.7943   8.7996   16.566   25.358   34.970   91.345   155.73
 P, BAR            125.00   69.665   14.205   7.5456   4.9295   3.5745   1.3684  0.80266
 T, K             2628.54  2356.59  1723.05  1515.60  1389.91  1302.30  1079.50   986.92
 RHO, KG/CU M    9.1627 5.7008 1.5907 9.6062-1 6.8435-1 5.2966-1 2.4500-1 1.5794-1
 H, KJ/KG        -1917.41 -2672.86 -4343.13 -4873.40 -5193.73 -5417.86 -6007.60 -6291.65
 U, KJ/KG        -3281.64 -3894.89 -5236.16 -5658.90 -5914.05 -6092.73 -6566.15 -6799.86
 G, KJ/KG        -37675.4 -34731.3 -27783.0 -25491.3 -24101.6 -23134.0 -20692.9 -19717.4
 S, KJ/(KG)(K)    13.6037  13.6037  13.6037  13.6037  13.6037  13.6037  13.6037  13.6037

 M, (1/n)          16.020   16.034   16.042   16.043   16.043   16.045   16.069   16.146
 (dLV/dLP)t      -1.00073 -1.00029 -1.00003 -1.00006 -1.00012 -1.00025 -1.00328 -1.01204
 (dLV/dLT)p        1.0155   1.0066   1.0004   1.0005   1.0013   1.0028   1.0433   1.1733
 Cp, KJ/(KG)(K)    2.8784   2.7435   2.5693   2.5495   2.5548   2.5748   2.9472   4.0130
 GAMMAs            1.2273   1.2364   1.2529   1.2554   1.2551   1.2533   1.2312   1.1970
 SON VEL,M/SEC     1294.0   1229.2   1057.8    993.0    950.8    919.7    829.3    780.0
 MACH NUMBER        0.000    1.000    2.082    2.449    2.692    2.877    3.449    3.792

 TRANSPORT PROPERTIES (GASES ONLY)
   CONDUCTIVITY IN UNITS OF MILLIWATTS/(CM)(K)

 VISC,MILLIPOISE  0.82349  0.76169  0.61066  0.55841  0.52585  0.50267  0.44137  0.41445

  WITH EQUILIBRIUM REACTIONS

 Cp, KJ/(KG)(K)    2.8784   2.7435   2.5693   2.5495   2.5548   2.5748   2.9472   4.0130
 CONDUCTIVITY      4.5594   3.8410   2.7535   2.5008   2.3668   2.2858   2.2485   2.6519
 PRANDTL NUMBER    0.5199   0.5441   0.5698   0.5693   0.5676   0.5662   0.5785   0.6272

  WITH FROZEN REACTIONS

 Cp, KJ/(KG)(K)    2.6850   2.6380   2.4899   2.4274   2.3865   2.3570   2.2819   2.2522
 CONDUCTIVITY      3.8912   3.5284   2.6847   2.4146   2.2554   2.1474   1.8880   1.7832
 PRANDTL NUMBER    0.5682   0.5695   0.5664   0.5614   0.5564   0.5517   0.5335   0.5235

 PERFORMANCE PARAMETERS

 Ae/At                      1.0000   2.0000   3.0000   4.0000   5.0000   10.000   15.000
 CSTAR, M/SEC               1783.9   1783.9   1783.9   1783.9   1783.9   1783.9   1783.9
 CF                         0.6891   1.2347   1.3630   1.4350   1.4833   1.6033   1.6581
 Ivac, M/SEC                2223.4   2608.0   2754.5   2841.2   2901.0   3055.4   3129.6
 Isp, M/SEC                 1229.2   2202.6   2431.5   2559.8   2645.9   2860.1   2957.8

 MASS FRACTIONS

 CH4              0.00000  0.00000  0.00001  0.00001  0.00003  0.00006  0.00083  0.00322
 *CO              0.51777  0.51168  0.48319  0.46443  0.44843  0.43427  0.38016  0.34291
 *CO2             0.10085  0.11046  0.15523  0.18469  0.20978  0.23193  0.31484  0.36682
 *H               0.00015  0.00006  0.00000  0.00000  0.00000  0.00000  0.00000  0.00000
 HCO              0.00002  0.00001  0.00000  0.00000  0.00000  0.00000  0.00000  0.00000
 *H2              0.04616  0.04667  0.04877  0.05012  0.05126  0.05226  0.05577  0.05725
 HCHO,formaldehy  0.00001  0.00001  0.00000  0.00000  0.00000  0.00000  0.00000  0.00000
 HCOOH            0.00001  0.00001  0.00000  0.00000  0.00000  0.00000  0.00000  0.00000
 H2O              0.33449  0.33096  0.31280  0.30075  0.29050  0.28147  0.24840  0.22980
 *OH              0.00053  0.00015  0.00000  0.00000  0.00000  0.00000  0.00000  0.00000

  * THERMODYNAMIC PROPERTIES FITTED TO 20000.K

 NOTE. WEIGHT FRACTION OF FUEL IN TOTAL FUELS AND OF OXIDANT IN TOTAL OXIDANTS

              THEORETICAL ROCKET PERFORMANCE ASSUMING EQUILIBRIUM

           COMPOSITION DURING EXPANSION FROM INFINITE AREA COMBUSTOR

 Pin =  1813.0 PSIA
 CASE = _______________

             REACTANT                    WT FRACTION      ENERGY      TEMP
                                          (SEE NOTE)     KJ/KG-MOL      K  
 FUEL        CH4                          1.0000000    -79266.074    161.000
 OXIDANT     O2(L)                        1.0000000    -12979.000     90.170

 O/F=    2.00000  %FUEL= 33.333333  R,EQ.RATIO= 1.994632  PHI,EQ.RATIO= 1.994632

                 CHAMBER   THROAT     EXIT     EXIT     EXIT     EXIT     EXIT     EXIT
 Pinf/P            1.0000   1.7943   224.27   369.63   523.30   683.36  1548.52  2472.35
 P, BAR            125.00   69.665  0.55737  0.33818  0.23887  0.18292  0.08072  0.05056
 T, K             2628.54  2356.59   938.33   885.74   855.25   834.11   777.52   751.70
 RHO, KG/CU M    9.1627 0 5.7008 0 1.1609-1 7.5497-2 5.5743-2 4.4095-2 2.1373-2 1.4025-2
 H, KJ/KG        -1917.41 -2672.86 -6471.73 -6703.34 -6855.63 -6968.14 -7291.86 -7464.46
 U, KJ/KG        -3281.64 -3894.89 -6951.85 -7151.27 -7284.15 -7382.98 -7669.55 -7824.94
 G, KJ/KG        -37675.4 -34731.3 -19236.5 -18752.7 -18490.2 -18315.2 -17869.1 -17690.3
 S, KJ/(KG)(K)    13.6037  13.6037  13.6037  13.6037  13.6037  13.6037  13.6037  13.6037

 M, (1/n)          16.020   16.034   16.250   16.441   16.594   16.718   17.117   17.338
 MW, MOL WT        16.020   16.034   16.250   16.441   16.594   16.718   17.117   17.122
 (dLV/dLP)t      -1.00073 -1.00029 -1.02235 -1.03791 -1.04759 -1.05394 -1.06732 -1.07587
 (dLV/dLT)p        1.0155   1.0066   1.3371   1.6019   1.7782   1.9000   2.1820   2.4474
 Cp, KJ/(KG)(K)    2.8784   2.7435   5.3795   7.6655   9.2386  10.3482  12.9887  16.5101
 GAMMAs            1.2273   1.2364   1.1733   1.1513   1.1414   1.1358   1.1245   1.1088
 SON VEL,M/SEC     1294.0   1229.2    750.6    718.1    699.4    686.4    651.7    632.2
 MACH NUMBER        0.000    1.000    4.021    4.308    4.494    4.630    5.031    5.268

 TRANSPORT PROPERTIES (GASES ONLY)
   CONDUCTIVITY IN UNITS OF MILLIWATTS/(CM)(K)

 VISC,MILLIPOISE  0.82349  0.76169  0.39983  0.38350  0.37374  0.36683  0.34766  0.33954

  WITH EQUILIBRIUM REACTIONS

 Cp, KJ/(KG)(K)    2.8784   2.7435   5.3795   7.6655   9.2386  10.3482  12.9887  13.0015
 CONDUCTIVITY      4.5594   3.8410   3.2275   4.2264   4.9321   5.4386   6.6820   6.6237
 PRANDTL NUMBER    0.5199   0.5441   0.6664   0.6956   0.7001   0.6980   0.6758   0.6665

  WITH FROZEN REACTIONS

 Cp, KJ/(KG)(K)    2.6850   2.6380   2.2358   2.2167   2.2043   2.1949   2.1654   2.1575
 CONDUCTIVITY      3.8912   3.5284   1.7239   1.6528   1.6078   1.5750   1.4805   1.4446
 PRANDTL NUMBER    0.5682   0.5695   0.5186   0.5143   0.5124   0.5112   0.5085   0.5071

 PERFORMANCE PARAMETERS

 Ae/At                      1.0000   20.000   30.000   40.000   50.000   100.00   150.00
 CSTAR, M/SEC               1783.9   1783.9   1783.9   1783.9   1783.9   1783.9   1783.9
 CF                         0.6891   1.6919   1.7344   1.7617   1.7817   1.8379   1.8672
 Ivac, M/SEC                2223.4   3177.1   3238.6   3279.0   3308.8   3393.7   3439.0
 Isp, M/SEC                 1229.2   3018.1   3093.8   3142.7   3178.3   3278.6   3330.8

 MASS FRACTIONS

 CH4              0.00000  0.00000  0.00637  0.01212  0.01662  0.02021  0.03138  0.03152
 *CO              0.51777  0.51168  0.31595  0.27900  0.25392  0.23518  0.18107  0.14806
 *CO2             0.10085  0.11046  0.40054  0.44282  0.46987  0.48949  0.54384  0.56335
 *H               0.00015  0.00006  0.00000  0.00000  0.00000  0.00000  0.00000  0.00000
 HCO              0.00002  0.00001  0.00000  0.00000  0.00000  0.00000  0.00000  0.00000
 *H2              0.04616  0.04667  0.05761  0.05738  0.05692  0.05646  0.05474  0.05412
 HCHO,formaldehy  0.00001  0.00001  0.00000  0.00000  0.00000  0.00000  0.00000  0.00000
 HCOOH            0.00001  0.00001  0.00000  0.00000  0.00000  0.00000  0.00000  0.00000
 H2O              0.33449  0.33096  0.21953  0.20868  0.20266  0.19866  0.18896  0.19422
 *OH              0.00053  0.00015  0.00000  0.00000  0.00000  0.00000  0.00000  0.00000
 C(gr)            0.00000  0.00000  0.00000  0.00000  0.00000  0.00000  0.00000  0.00873

  * THERMODYNAMIC PROPERTIES FITTED TO 20000.K

 NOTE. WEIGHT FRACTION OF FUEL IN TOTAL FUELS AND OF OXIDANT IN TOTAL OXIDANTS

              THEORETICAL ROCKET PERFORMANCE ASSUMING EQUILIBRIUM

           COMPOSITION DURING EXPANSION FROM INFINITE AREA COMBUSTOR

 Pin =  1813.0 PSIA
 CASE = _______________

             REACTANT                    WT FRACTION      ENERGY      TEMP
                                          (SEE NOTE)     KJ/KG-MOL      K  
 FUEL        CH4                          1.0000000    -79266.074    161.000
 OXIDANT     O2(L)                        1.0000000    -12979.000     90.170

 O/F=    2.10000  %FUEL= 32.258065  R,EQ.RATIO= 1.899649  PHI,EQ.RATIO= 1.899649

                 CHAMBER   THROAT     EXIT     EXIT     EXIT     EXIT     EXIT     EXIT
 Pinf/P            1.0000   1.7881   8.7015   16.342   24.985   34.437   90.207   155.36
 P, BAR            125.00   69.907   14.365   7.6488   5.0029   3.6298   1.3857  0.80456
 T, K             2773.44  2499.78  1848.46  1631.42  1498.80  1405.66  1161.85  1048.11
 RHO, KG/CU M    8.9637 0 5.5697 0 1.5494 0 9.3476-1 6.6552-1 5.1486-1 2.3784-1 1.5319-1
 H, KJ/KG        -1868.64 -2638.10 -4354.40 -4903.80 -5236.87 -5470.48 -6088.34 -6389.09
 U, KJ/KG        -3263.16 -3893.23 -5281.56 -5722.07 -5988.60 -6175.49 -6670.96 -6914.28
 G, KJ/KG        -39263.8 -36343.5 -29277.8 -26900.8 -25445.7 -24423.5 -21753.9 -20521.1
 S, KJ/(KG)(K)    13.4833  13.4833  13.4833  13.4833  13.4833  13.4833  13.4833  13.4833

 M, (1/n)          16.536   16.560   16.577   16.577   16.577   16.578   16.580   16.593
 MW, MOL WT        16.536   16.560   16.577   16.577   16.577   16.578   16.580   16.593
 (dLV/dLP)t      -1.00127 -1.00055 -1.00003 -1.00002 -1.00002 -1.00004 -1.00040 -1.00188
 (dLV/dLT)p        1.0264   1.0123   1.0007   1.0002   1.0002   1.0004   1.0049   1.0255
 Cp, KJ/(KG)(K)    2.9562   2.7815   2.5509   2.5173   2.5086   2.5108   2.5952   2.8081
 GAMMAs            1.2164   1.2261   1.2451   1.2489   1.2500   1.2498   1.2418   1.2282
 SON VEL,M/SEC     1302.4   1240.6   1074.5   1010.9    969.4    938.7    850.6    803.1
 MACH NUMBER        0.000    1.000    2.075    2.437    2.677    2.859    3.415    3.744

 TRANSPORT PROPERTIES (GASES ONLY)
   CONDUCTIVITY IN UNITS OF MILLIWATTS/(CM)(K)

 VISC,MILLIPOISE  0.86412  0.80217  0.64768  0.59336  0.55927  0.53485  0.46855  0.43602

  WITH EQUILIBRIUM REACTIONS

 Cp, KJ/(KG)(K)    2.9562   2.7815   2.5509   2.5173   2.5086   2.5108   2.5952   2.8081
 CONDUCTIVITY      5.0089   4.1421   2.8483   2.5677   2.4169   2.3205   2.1259   2.1253
 PRANDTL NUMBER    0.5100   0.5387   0.5800   0.5817   0.5805   0.5787   0.5720   0.5761

  WITH FROZEN REACTIONS

 Cp, KJ/(KG)(K)    2.6608   2.6181   2.4799   2.4193   2.3785   2.3483   2.2661   2.2288
 CONDUCTIVITY      3.9649   3.6109   2.7670   2.4893   2.3229   2.2085   1.9245   1.8027
 PRANDTL NUMBER    0.5799   0.5816   0.5805   0.5767   0.5726   0.5687   0.5517   0.5391

 PERFORMANCE PARAMETERS

 Ae/At                      1.0000   2.0000   3.0000   4.0000   5.0000   10.000   15.000
 CSTAR, M/SEC               1809.1   1809.1   1809.1   1809.1   1809.1   1809.1   1809.1
 CF                         0.6857   1.2325   1.3619   1.4346   1.4836   1.6058   1.6620
 Ivac, M/SEC                2252.3   2645.5   2795.9   2885.1   2946.6   3105.6   3181.5
 Isp, M/SEC                 1240.5   2229.7   2463.8   2595.5   2684.0   2905.1   3006.8

 MASS FRACTIONS

 CH4              0.00000  0.00000  0.00000  0.00000  0.00001  0.00001  0.00010  0.00046
 *CO              0.49398  0.48844  0.46318  0.44684  0.43298  0.42074  0.37352  0.33965
 *CO2             0.10873  0.11747  0.15718  0.18286  0.20462  0.22385  0.29781  0.35003
 COOH             0.00001  0.00000  0.00000  0.00000  0.00000  0.00000  0.00000  0.00000
 *H               0.00024  0.00011  0.00001  0.00000  0.00000  0.00000  0.00000  0.00000
 HCO              0.00002  0.00001  0.00000  0.00000  0.00000  0.00000  0.00000  0.00000
 *H2              0.04107  0.04155  0.04345  0.04463  0.04562  0.04650  0.04986  0.05211
 HCHO,formaldehy  0.00001  0.00001  0.00000  0.00000  0.00000  0.00000  0.00000  0.00000
 HCOOH            0.00001  0.00001  0.00000  0.00000  0.00000  0.00000  0.00000  0.00000
 H2O              0.35477  0.35202  0.33617  0.32567  0.31677  0.30890  0.27872  0.25775
 *O               0.00001  0.00000  0.00000  0.00000  0.00000  0.00000  0.00000  0.00000
 *OH              0.00115  0.00039  0.00001  0.00000  0.00000  0.00000  0.00000  0.00000
 *O2              0.00001  0.00000  0.00000  0.00000  0.00000  0.00000  0.00000  0.00000

  * THERMODYNAMIC PROPERTIES FITTED TO 20000.K

 NOTE. WEIGHT FRACTION OF FUEL IN TOTAL FUELS AND OF OXIDANT IN TOTAL OXIDANTS

              THEORETICAL ROCKET PERFORMANCE ASSUMING EQUILIBRIUM

           COMPOSITION DURING EXPANSION FROM INFINITE AREA COMBUSTOR

 Pin =  1813.0 PSIA
 CASE = _______________

             REACTANT                    WT FRACTION      ENERGY      TEMP
                                          (SEE NOTE)     KJ/KG-MOL      K  
 FUEL        CH4                          1.0000000    -79266.074    161.000
 OXIDANT     O2(L)                        1.0000000    -12979.000     90.170

 O/F=    2.10000  %FUEL= 32.258065  R,EQ.RATIO= 1.899649  PHI,EQ.RATIO= 1.899649

                 CHAMBER   THROAT     EXIT     EXIT     EXIT     EXIT     EXIT     EXIT
 Pinf/P            1.0000   1.7881   226.29   378.07   538.30   704.93  1604.20  2577.17
 P, BAR            125.00   69.907  0.55238  0.33063  0.23221  0.17732  0.07792  0.04850
 T, K             2773.44  2499.78   981.29   909.04   870.58   845.51   782.62   751.98
 RHO, KG/CU M    8.9637 0 5.5697 0 1.1254-1 7.3177-2 5.4040-2 4.2758-2 2.0745-2 1.3619-2
 H, KJ/KG        -1868.64 -2638.10 -6579.98 -6821.49 -6977.14 -7090.97 -7415.34 -7588.72
 U, KJ/KG        -3263.16 -3893.23 -7070.80 -7273.32 -7406.84 -7505.68 -7790.96 -7944.88
 G, KJ/KG        -39263.8 -36343.5 -19811.0 -19078.4 -18715.5 -18491.3 -17967.6 -17727.9
 S, KJ/(KG)(K)    13.4833  13.4833  13.4833  13.4833  13.4833  13.4833  13.4833  13.4833

 M, (1/n)          16.536   16.560   16.623   16.728   16.845   16.952   17.324   17.555
 MW, MOL WT        16.536   16.560   16.623   16.728   16.845   16.952   17.324   17.555
 (dLV/dLP)t      -1.00127 -1.00055 -1.00537 -1.01635 -1.02673 -1.03470 -1.05404 -1.06101
 (dLV/dLT)p        1.0264   1.0123   1.0775   1.2529   1.4293   1.5707   1.9406   2.0885
 Cp, KJ/(KG)(K)    2.9562   2.7815   3.2526   4.7124   6.2092   7.4331  10.7234  12.0617
 GAMMAs            1.2164   1.2261   1.2094   1.1754   1.1569   1.1469   1.1293   1.1239
 SON VEL,M/SEC     1302.4   1240.6    770.5    728.8    705.1    689.7    651.3    632.7
 MACH NUMBER        0.000    1.000    3.984    4.319    4.533    4.686    5.114    5.346

 TRANSPORT PROPERTIES (GASES ONLY)
   CONDUCTIVITY IN UNITS OF MILLIWATTS/(CM)(K)

 VISC,MILLIPOISE  0.86412  0.80217  0.41621  0.39404  0.38181  0.37364  0.35233  0.34147

  WITH EQUILIBRIUM REACTIONS

 Cp, KJ/(KG)(K)    2.9562   2.7815   3.2526   4.7124   6.2092   7.4331  10.7234  12.0617
 CONDUCTIVITY      5.0089   4.1421   2.2689   2.8520   3.4835   4.0140   5.5066   6.1569
 PRANDTL NUMBER    0.5100   0.5387   0.5967   0.6511   0.6806   0.6919   0.6861   0.6690

  WITH FROZEN REACTIONS

 Cp, KJ/(KG)(K)    2.6608   2.6181   2.2078   2.1847   2.1715   2.1619   2.1331   2.1157
 CONDUCTIVITY      3.9649   3.6109   1.7333   1.6537   1.6059   1.5718   1.4756   1.4228
 PRANDTL NUMBER    0.5799   0.5816   0.5301   0.5206   0.5163   0.5139   0.5093   0.5078

 PERFORMANCE PARAMETERS

 Ae/At                      1.0000   20.000   30.000   40.000   50.000   100.00   150.00
 CSTAR, M/SEC               1809.1   1809.1   1809.1   1809.1   1809.1   1809.1   1809.1
 CF                         0.6857   1.6967   1.7397   1.7668   1.7864   1.8410   1.8696
 Ivac, M/SEC                2252.3   3229.5   3290.9   3330.8   3360.1   3443.4   3487.6
 Isp, M/SEC                 1240.5   3069.6   3147.3   3196.4   3231.8   3330.7   3382.3

 MASS FRACTIONS

 CH4              0.00000  0.00000  0.00134  0.00437  0.00770  0.01069  0.02085  0.02696
 *CO              0.49398  0.48844  0.31358  0.27620  0.25056  0.23147  0.17681  0.14811
 *CO2             0.10873  0.11747  0.38857  0.43899  0.47013  0.49194  0.54994  0.57829
 COOH             0.00001  0.00000  0.00000  0.00000  0.00000  0.00000  0.00000  0.00000
 *H               0.00024  0.00011  0.00000  0.00000  0.00000  0.00000  0.00000  0.00000
 HCO              0.00002  0.00001  0.00000  0.00000  0.00000  0.00000  0.00000  0.00000
 *H2              0.04107  0.04155  0.05355  0.05471  0.05488  0.05476  0.05358  0.05258
 HCHO,formaldehy  0.00001  0.00001  0.00000  0.00000  0.00000  0.00000  0.00000  0.00000
 HCOOH            0.00001  0.00001  0.00000  0.00000  0.00000  0.00000  0.00000  0.00000
 H2O              0.35477  0.35202  0.24296  0.22573  0.21672  0.21115  0.19882  0.19407
 *O               0.00001  0.00000  0.00000  0.00000  0.00000  0.00000  0.00000  0.00000
 *OH              0.00115  0.00039  0.00000  0.00000  0.00000  0.00000  0.00000  0.00000
 *O2              0.00001  0.00000  0.00000  0.00000  0.00000  0.00000  0.00000  0.00000

  * THERMODYNAMIC PROPERTIES FITTED TO 20000.K

 NOTE. WEIGHT FRACTION OF FUEL IN TOTAL FUELS AND OF OXIDANT IN TOTAL OXIDANTS

              THEORETICAL ROCKET PERFORMANCE ASSUMING EQUILIBRIUM

           COMPOSITION DURING EXPANSION FROM INFINITE AREA COMBUSTOR

 Pin =  1813.0 PSIA
 CASE = _______________

             REACTANT                    WT FRACTION      ENERGY      TEMP
                                          (SEE NOTE)     KJ/KG-MOL      K  
 FUEL        CH4                          1.0000000    -79266.074    161.000
 OXIDANT     O2(L)                        1.0000000    -12979.000     90.170

 O/F=    2.20000  %FUEL= 31.250000  R,EQ.RATIO= 1.813302  PHI,EQ.RATIO= 1.813302

                 CHAMBER   THROAT     EXIT     EXIT     EXIT     EXIT     EXIT     EXIT
 Pinf/P            1.0000   1.7818   8.6020   16.116   24.604   33.883   88.689   153.06
 P, BAR            125.00   70.154   14.531   7.7564   5.0804   3.6892   1.4094  0.81665
 T, K             2907.46  2635.14  1971.79  1746.44  1607.74  1509.78  1250.16  1125.42
 RHO, KG/CU M    8.8123 0 5.4687 0 1.5166 0 9.1403-1 6.5035-1 5.0290-1 2.3203-1 1.4936-1
 H, KJ/KG        -1822.92 -2602.69 -4357.70 -4924.24 -5268.86 -5511.13 -6154.30 -6468.89
 U, KJ/KG        -3241.39 -3885.52 -5315.87 -5772.83 -6050.04 -6244.72 -6761.72 -7015.66
 G, KJ/KG        -40668.0 -37809.5 -30701.8 -28257.6 -26749.1 -25682.6 -22857.1 -21505.1
 S, KJ/(KG)(K)    13.3605  13.3605  13.3605  13.3605  13.3605  13.3605  13.3605  13.3605

 M, (1/n)          17.042   17.079   17.110   17.112   17.112   17.112   17.112   17.114
 MW, MOL WT        17.042   17.079   17.110   17.112   17.112   17.112   17.112   17.114
 (dLV/dLP)t      -1.00207 -1.00097 -1.00006 -1.00002 -1.00001 -1.00001 -1.00005 -1.00022
 (dLV/dLT)p        1.0417   1.0213   1.0016   1.0004   1.0002   1.0001   1.0006   1.0028
 Cp, KJ/(KG)(K)    3.0669   2.8462   2.5414   2.4948   2.4772   2.4711   2.4989   2.5619
 GAMMAs            1.2056   1.2157   1.2373   1.2421   1.2441   1.2448   1.2416   1.2353
 SON VEL,M/SEC     1307.7   1248.8   1088.8   1026.7    985.8    955.6    868.5    821.9
 MACH NUMBER        0.000    1.000    2.068    2.426    2.663    2.842    3.389    3.709

 TRANSPORT PROPERTIES (GASES ONLY)
   CONDUCTIVITY IN UNITS OF MILLIWATTS/(CM)(K)

 VISC,MILLIPOISE  0.90233  0.84089  0.68421  0.62813  0.59269  0.56719  0.49723  0.46204

  WITH EQUILIBRIUM REACTIONS

 Cp, KJ/(KG)(K)    3.0669   2.8462   2.5415   2.4948   2.4772   2.4711   2.4989   2.5619
 CONDUCTIVITY      5.5391   4.5185   2.9591   2.6418   2.4747   2.3671   2.1269   2.0468
 PRANDTL NUMBER    0.4996   0.5297   0.5876   0.5932   0.5933   0.5921   0.5842   0.5783

  WITH FROZEN REACTIONS

 Cp, KJ/(KG)(K)    2.6358   2.5973   2.4692   2.4112   2.3713   2.3412   2.2556   2.2135
 CONDUCTIVITY      4.0224   3.6801   2.8437   2.5609   2.3891   2.2696   1.9659   1.8307
 PRANDTL NUMBER    0.5913   0.5935   0.5941   0.5914   0.5883   0.5851   0.5705   0.5586

 PERFORMANCE PARAMETERS

 Ae/At                      1.0000   2.0000   3.0000   4.0000   5.0000   10.000   15.000
 CSTAR, M/SEC               1830.3   1830.3   1830.3   1830.3   1830.3   1830.3   1830.3
 CF                         0.6823   1.2301   1.3607   1.4343   1.4839   1.6080   1.6654
 Ivac, M/SEC                2276.1   2677.1   2831.2   2922.8   2986.1   3149.6   3227.6
 Isp, M/SEC                 1248.8   2251.6   2490.5   2625.2   2716.0   2943.3   3048.3

 MASS FRACTIONS

 CH4              0.00000  0.00000  0.00000  0.00000  0.00000  0.00000  0.00001  0.00005
 *CO              0.47068  0.46559  0.44303  0.42868  0.41659  0.40594  0.36472  0.33467
 *CO2             0.11768  0.12571  0.16118  0.18374  0.20273  0.21947  0.28420  0.33131
 COOH             0.00001  0.00000  0.00000  0.00000  0.00000  0.00000  0.00000  0.00000
 *H               0.00035  0.00017  0.00001  0.00000  0.00000  0.00000  0.00000  0.00000
 HCO              0.00003  0.00001  0.00000  0.00000  0.00000  0.00000  0.00000  0.00000
 *H2              0.03636  0.03682  0.03855  0.03960  0.04047  0.04123  0.04420  0.04634
 HCHO,formaldehy  0.00001  0.00000  0.00000  0.00000  0.00000  0.00000  0.00000  0.00000
 HCOOH            0.00001  0.00001  0.00000  0.00000  0.00000  0.00000  0.00000  0.00000
 H2O              0.37259  0.37080  0.35719  0.34798  0.34020  0.33335  0.30687  0.28763
 *O               0.00002  0.00000  0.00000  0.00000  0.00000  0.00000  0.00000  0.00000
 *OH              0.00224  0.00087  0.00002  0.00000  0.00000  0.00000  0.00000  0.00000
 *O2              0.00002  0.00000  0.00000  0.00000  0.00000  0.00000  0.00000  0.00000

  * THERMODYNAMIC PROPERTIES FITTED TO 20000.K

 NOTE. WEIGHT FRACTION OF FUEL IN TOTAL FUELS AND OF OXIDANT IN TOTAL OXIDANTS

              THEORETICAL ROCKET PERFORMANCE ASSUMING EQUILIBRIUM

           COMPOSITION DURING EXPANSION FROM INFINITE AREA COMBUSTOR

 Pin =  1813.0 PSIA
 CASE = _______________

             REACTANT                    WT FRACTION      ENERGY      TEMP
                                          (SEE NOTE)     KJ/KG-MOL      K  
 FUEL        CH4                          1.0000000    -79266.074    161.000
 OXIDANT     O2(L)                        1.0000000    -12979.000     90.170

 O/F=    2.20000  %FUEL= 31.250000  R,EQ.RATIO= 1.813302  PHI,EQ.RATIO= 1.813302

                 CHAMBER   THROAT     EXIT     EXIT     EXIT     EXIT     EXIT     EXIT
 Pinf/P            1.0000   1.7818   223.93   378.90   545.20   718.60  1651.94  2660.16
 P, BAR            125.00   70.154  0.55822  0.32990  0.22927  0.17395  0.07567  0.04699
 T, K             2907.46  2635.14  1047.86   954.33   900.86   867.07   790.90   757.06
 RHO, KG/CU M    8.8123 0 5.4687 0 1.0968-1 7.1264-2 5.2613-2 4.1627-2 2.0205-2 1.3270-2
 H, KJ/KG        -1822.92 -2602.69 -6669.61 -6924.86 -7088.25 -7206.07 -7534.97 -7708.44
 U, KJ/KG        -3241.39 -3885.52 -7178.58 -7387.79 -7524.03 -7623.95 -7909.47 -8062.54
 G, KJ/KG        -40668.0 -37809.5 -20669.6 -19675.1 -19124.1 -18790.5 -18101.8 -17823.2
 S, KJ/(KG)(K)    13.3605  13.3605  13.3605  13.3605  13.3605  13.3605  13.3605  13.3605

 M, (1/n)          17.042   17.079   17.118   17.140   17.188   17.252   17.559   17.776
 MW, MOL WT        17.042   17.079   17.118   17.140   17.188   17.252   17.559   17.776
 (dLV/dLP)t      -1.00207 -1.00097 -1.00068 -1.00325 -1.00841 -1.01475 -1.03766 -1.04803
 (dLV/dLT)p        1.0417   1.0213   1.0092   1.0480   1.1307   1.2366   1.6476   1.8490
 Cp, KJ/(KG)(K)    3.0669   2.8462   2.6542   3.0186   3.7115   4.5933   8.0909   9.8384
 GAMMAs            1.2056   1.2157   1.2281   1.2096   1.1879   1.1706   1.1379   1.1293
 SON VEL,M/SEC     1307.7   1248.8    790.6    748.3    719.5    699.4    652.8    632.4
 MACH NUMBER        0.000    1.000    3.938    4.269    4.510    4.692    5.178    5.425

 TRANSPORT PROPERTIES (GASES ONLY)
   CONDUCTIVITY IN UNITS OF MILLIWATTS/(CM)(K)

 VISC,MILLIPOISE  0.90233  0.84089  0.43944  0.41121  0.39447  0.38360  0.35796  0.34596

  WITH EQUILIBRIUM REACTIONS

 Cp, KJ/(KG)(K)    3.0669   2.8462   2.6542   3.0186   3.7115   4.5933   8.0909   9.8384
 CONDUCTIVITY      5.5391   4.5185   2.0250   2.1113   2.3666   2.7171   4.2035   5.0062
 PRANDTL NUMBER    0.4996   0.5297   0.5760   0.5879   0.6186   0.6485   0.6890   0.6799

  WITH FROZEN REACTIONS

 Cp, KJ/(KG)(K)    2.6358   2.5973   2.1883   2.1590   2.1427   2.1319   2.1025   2.0855
 CONDUCTIVITY      4.0224   3.6801   1.7516   1.6603   1.6066   1.5696   1.4697   1.4161
 PRANDTL NUMBER    0.5913   0.5935   0.5490   0.5347   0.5261   0.5210   0.5121   0.5095

 PERFORMANCE PARAMETERS

 Ae/At                      1.0000   20.000   30.000   40.000   50.000   100.00   150.00
 CSTAR, M/SEC               1830.3   1830.3   1830.3   1830.3   1830.3   1830.3   1830.3
 CF                         0.6823   1.7010   1.7452   1.7729   1.7927   1.8466   1.8745
 Ivac, M/SEC                2276.1   3276.9   3339.3   3379.4   3408.6   3490.8   3534.1
 Isp, M/SEC                 1248.8   3113.4   3194.4   3245.1   3281.2   3380.0   3430.9

 MASS FRACTIONS

 CH4              0.00000  0.00000  0.00016  0.00078  0.00208  0.00381  0.01194  0.01752
 *CO              0.47068  0.46559  0.31093  0.27497  0.24886  0.22909  0.17299  0.14401
 *CO2             0.11768  0.12571  0.36832  0.42312  0.46058  0.48690  0.55272  0.58294
 COOH             0.00001  0.00000  0.00000  0.00000  0.00000  0.00000  0.00000  0.00000
 *H               0.00035  0.00017  0.00000  0.00000  0.00000  0.00000  0.00000  0.00000
 HCO              0.00003  0.00001  0.00000  0.00000  0.00000  0.00000  0.00000  0.00000
 *H2              0.03636  0.03682  0.04799  0.05027  0.05150  0.05205  0.05200  0.05128
 HCHO,formaldehy  0.00001  0.00000  0.00000  0.00000  0.00000  0.00000  0.00000  0.00000
 HCOOH            0.00001  0.00001  0.00000  0.00000  0.00000  0.00000  0.00000  0.00000
 H2O              0.37259  0.37080  0.27260  0.25086  0.23699  0.22816  0.21035  0.20424
 *O               0.00002  0.00000  0.00000  0.00000  0.00000  0.00000  0.00000  0.00000
 *OH              0.00224  0.00087  0.00000  0.00000  0.00000  0.00000  0.00000  0.00000
 *O2              0.00002  0.00000  0.00000  0.00000  0.00000  0.00000  0.00000  0.00000

  * THERMODYNAMIC PROPERTIES FITTED TO 20000.K

 NOTE. WEIGHT FRACTION OF FUEL IN TOTAL FUELS AND OF OXIDANT IN TOTAL OXIDANTS

              THEORETICAL ROCKET PERFORMANCE ASSUMING EQUILIBRIUM

           COMPOSITION DURING EXPANSION FROM INFINITE AREA COMBUSTOR

 Pin =  1813.0 PSIA
 CASE = _______________

             REACTANT                    WT FRACTION      ENERGY      TEMP
                                          (SEE NOTE)     KJ/KG-MOL      K  
 FUEL        CH4                          1.0000000    -79266.074    161.000
 OXIDANT     O2(L)                        1.0000000    -12979.000     90.170

 O/F=    2.30000  %FUEL= 30.303030  R,EQ.RATIO= 1.734462  PHI,EQ.RATIO= 1.734462

                 CHAMBER   THROAT     EXIT     EXIT     EXIT     EXIT     EXIT     EXIT
 Pinf/P            1.0000   1.7754   8.5003   15.885   24.216   33.315   87.049   150.27
 P, BAR            125.00   70.408   14.705   7.8692   5.1620   3.7521   1.4360  0.83186
 T, K             3030.15  2762.01  2092.91  1860.58  1716.51  1614.25  1340.66  1207.28
 RHO, KG/CU M    8.7009 0 5.3931 0 1.4909 0 8.9760-1 6.3824-1 4.9331-1 2.2733-1 1.4624-1
 H, KJ/KG        -1779.98 -2566.63 -4353.43 -4935.32 -5290.48 -5540.73 -6207.42 -6534.78
 U, KJ/KG        -3216.60 -3872.15 -5339.78 -5812.02 -6099.26 -6301.31 -6839.09 -7103.60
 G, KJ/KG        -41889.3 -39126.7 -32056.8 -29563.3 -28011.5 -26908.2 -23953.4 -22515.3
 S, KJ/(KG)(K)    13.2368  13.2368  13.2368  13.2368  13.2368  13.2368  13.2368  13.2368

 M, (1/n)          17.537   17.591   17.642   17.646   17.646   17.647   17.647   17.647
 MW, MOL WT        17.537   17.591   17.642   17.646   17.646   17.647   17.647   17.647
 (dLV/dLP)t      -1.00318 -1.00162 -1.00013 -1.00003 -1.00001 -1.00001 -1.00001 -1.00003
 (dLV/dLT)p        1.0624   1.0343   1.0033   1.0010   1.0004   1.0002   1.0001   1.0004
 Cp, KJ/(KG)(K)    3.2140   2.9430   2.5431   2.4804   2.4546   2.4421   2.4420   2.4727
 GAMMAs            1.1952   1.2051   1.2292   1.2350   1.2378   1.2392   1.2391   1.2356
 SON VEL,M/SEC     1310.4   1254.3   1101.1   1040.5   1000.5    970.8    884.7    838.3
 MACH NUMBER        0.000    1.000    2.060    2.414    2.648    2.825    3.363    3.678

 TRANSPORT PROPERTIES (GASES ONLY)
   CONDUCTIVITY IN UNITS OF MILLIWATTS/(CM)(K)

 VISC,MILLIPOISE  0.93807  0.87773  0.72027  0.66273  0.62612  0.59965  0.52645  0.48920

  WITH EQUILIBRIUM REACTIONS

 Cp, KJ/(KG)(K)    3.2140   2.9430   2.5431   2.4804   2.4546   2.4421   2.4420   2.4727
 CONDUCTIVITY      6.1419   4.9758   3.0975   2.7280   2.5402   2.4207   2.1478   2.0432
 PRANDTL NUMBER    0.4909   0.5191   0.5913   0.6026   0.6050   0.6050   0.5986   0.5920

  WITH FROZEN REACTIONS

 Cp, KJ/(KG)(K)    2.6102   2.5757   2.4579   2.4030   2.3645   2.3350   2.2483   2.2032
 CONDUCTIVITY      4.0657   3.7375   2.9154   2.6298   2.4540   2.3306   2.0104   1.8637
 PRANDTL NUMBER    0.6023   0.6049   0.6073   0.6056   0.6033   0.6008   0.5887   0.5783

 PERFORMANCE PARAMETERS

 Ae/At                      1.0000   2.0000   3.0000   4.0000   5.0000   10.000   15.000
 CSTAR, M/SEC               1847.8   1847.8   1847.8   1847.8   1847.8   1847.8   1847.8
 CF                         0.6788   1.2278   1.3595   1.4340   1.4842   1.6104   1.6689
 Ivac, M/SEC                2295.1   2703.4   2861.1   2955.0   3019.9   3188.0   3268.2
 Isp, M/SEC                 1254.3   2268.7   2512.1   2649.7   2742.5   2975.7   3083.8

 MASS FRACTIONS

 CH4              0.00000  0.00000  0.00000  0.00000  0.00000  0.00000  0.00000  0.00001
 *CO              0.44777  0.44301  0.42276  0.41008  0.39947  0.39015  0.35416  0.32768
 *CO2             0.12768  0.13520  0.16706  0.18699  0.20366  0.21830  0.27485  0.31643
 COOH             0.00001  0.00001  0.00000  0.00000  0.00000  0.00000  0.00000  0.00000
 *H               0.00047  0.00026  0.00002  0.00001  0.00000  0.00000  0.00000  0.00000
 HCO              0.00004  0.00001  0.00000  0.00000  0.00000  0.00000  0.00000  0.00000
 *H2              0.03205  0.03246  0.03405  0.03498  0.03575  0.03642  0.03901  0.04091
 HCHO,formaldehy  0.00001  0.00000  0.00000  0.00000  0.00000  0.00000  0.00000  0.00000
 HCOOH            0.00001  0.00001  0.00000  0.00000  0.00000  0.00000  0.00000  0.00000
 H2O              0.38788  0.38727  0.37603  0.36793  0.36112  0.35513  0.33198  0.31497
 *O               0.00006  0.00002  0.00000  0.00000  0.00000  0.00000  0.00000  0.00000
 *OH              0.00396  0.00174  0.00007  0.00001  0.00000  0.00000  0.00000  0.00000
 *O2              0.00007  0.00002  0.00000  0.00000  0.00000  0.00000  0.00000  0.00000

  * THERMODYNAMIC PROPERTIES FITTED TO 20000.K

 NOTE. WEIGHT FRACTION OF FUEL IN TOTAL FUELS AND OF OXIDANT IN TOTAL OXIDANTS

              THEORETICAL ROCKET PERFORMANCE ASSUMING EQUILIBRIUM

           COMPOSITION DURING EXPANSION FROM INFINITE AREA COMBUSTOR

 Pin =  1813.0 PSIA
 CASE = _______________

             REACTANT                    WT FRACTION      ENERGY      TEMP
                                          (SEE NOTE)     KJ/KG-MOL      K  
 FUEL        CH4                          1.0000000    -79266.074    161.000
 OXIDANT     O2(L)                        1.0000000    -12979.000     90.170

 O/F=    2.30000  %FUEL= 30.303030  R,EQ.RATIO= 1.734462  PHI,EQ.RATIO= 1.734462

                 CHAMBER   THROAT     EXIT     EXIT     EXIT     EXIT     EXIT     EXIT
 Pinf/P            1.0000   1.7754   220.05   373.78   541.26   718.62  1685.48  2728.73
 P, BAR            125.00   70.408  0.56806  0.33442  0.23094  0.17394  0.07416  0.04581
 T, K             3030.15  2762.01  1123.19  1018.34   953.32   908.58   806.06   765.67
 RHO, KG/CU M    8.7009 0 5.3931 0 1.0735-1 6.9713-2 5.1447-2 4.0693-2 1.9746-2 1.2972-2
 H, KJ/KG        -1779.98 -2566.63 -6744.08 -7011.06 -7182.88 -7307.02 -7647.97 -7823.37
 U, KJ/KG        -3216.60 -3872.15 -7273.27 -7490.78 -7631.77 -7734.48 -8023.55 -8176.51
 G, KJ/KG        -41889.3 -39126.7 -21611.5 -20490.6 -19801.7 -19333.6 -18317.6 -17958.4
 S, KJ/(KG)(K)    13.2368  13.2368  13.2368  13.2368  13.2368  13.2368  13.2368  13.2368

 M, (1/n)          17.537   17.591   17.647   17.650   17.658   17.673   17.845   18.027
 MW, MOL WT        17.537   17.591   17.647   17.650   17.658   17.673   17.845   18.027
 (dLV/dLP)t      -1.00318 -1.00162 -1.00008 -1.00039 -1.00123 -1.00290 -1.01921 -1.03208
 (dLV/dLT)p        1.0624   1.0343   1.0011   1.0055   1.0181   1.0445   1.3241   1.5599
 Cp, KJ/(KG)(K)    3.2140   2.9430   2.5119   2.6081   2.7530   2.9918   5.3070   7.2754
 GAMMAs            1.1952   1.2051   1.2313   1.2228   1.2137   1.2029   1.1557   1.1392
 SON VEL,M/SEC     1310.4   1254.3    807.2    765.9    738.1    717.1    658.8    634.3
 MACH NUMBER        0.000    1.000    3.903    4.223    4.454    4.637    5.200    5.481

 TRANSPORT PROPERTIES (GASES ONLY)
   CONDUCTIVITY IN UNITS OF MILLIWATTS/(CM)(K)

 VISC,MILLIPOISE  0.93807  0.87773  0.46501  0.43388  0.41388  0.39974  0.36578  0.35155

  WITH EQUILIBRIUM REACTIONS

 Cp, KJ/(KG)(K)    3.2140   2.9430   2.5119   2.6081   2.7530   2.9918   5.3070   7.2754
 CONDUCTIVITY      6.1419   4.9758   1.9909   1.9509   1.9640   2.0305   2.9199   3.7521
 PRANDTL NUMBER    0.4909   0.5191   0.5867   0.5801   0.5802   0.5890   0.6648   0.6817

  WITH FROZEN REACTIONS

 Cp, KJ/(KG)(K)    2.6102   2.5757   2.1749   2.1409   2.1204   2.1069   2.0739   2.0568
 CONDUCTIVITY      4.0657   3.7375   1.7760   1.6732   1.6128   1.5713   1.4637   1.4086
 PRANDTL NUMBER    0.6023   0.6049   0.5694   0.5551   0.5442   0.5360   0.5183   0.5133

 PERFORMANCE PARAMETERS

 Ae/At                      1.0000   20.000   30.000   40.000   50.000   100.00   150.00
 CSTAR, M/SEC               1847.8   1847.8   1847.8   1847.8   1847.8   1847.8   1847.8
 CF                         0.6788   1.7052   1.7505   1.7790   1.7993   1.8540   1.8815
 Ivac, M/SEC                2295.1   3318.9   3382.8   3423.8   3453.3   3535.4   3578.2
 Isp, M/SEC                 1254.3   3150.9   3234.5   3287.2   3324.8   3425.8   3476.6

 MASS FRACTIONS

 CH4              0.00000  0.00000  0.00002  0.00009  0.00028  0.00067  0.00504  0.00960
 *CO              0.44777  0.44301  0.30650  0.27369  0.24882  0.22908  0.17055  0.14070
 *CO2             0.12768  0.13520  0.34968  0.40104  0.43959  0.46954  0.54950  0.58391
 COOH             0.00001  0.00001  0.00000  0.00000  0.00000  0.00000  0.00000  0.00000
 *H               0.00047  0.00026  0.00000  0.00000  0.00000  0.00000  0.00000  0.00000
 HCO              0.00004  0.00001  0.00000  0.00000  0.00000  0.00000  0.00000  0.00000
 *H2              0.03205  0.03246  0.04243  0.04476  0.04645  0.04767  0.04969  0.04955
 HCHO,formaldehy  0.00001  0.00000  0.00000  0.00000  0.00000  0.00000  0.00000  0.00000
 HCOOH            0.00001  0.00001  0.00000  0.00000  0.00000  0.00000  0.00000  0.00000
 H2O              0.38788  0.38727  0.30137  0.28042  0.26486  0.25304  0.22521  0.21624
 *O               0.00006  0.00002  0.00000  0.00000  0.00000  0.00000  0.00000  0.00000
 *OH              0.00396  0.00174  0.00000  0.00000  0.00000  0.00000  0.00000  0.00000
 *O2              0.00007  0.00002  0.00000  0.00000  0.00000  0.00000  0.00000  0.00000

  * THERMODYNAMIC PROPERTIES FITTED TO 20000.K

 NOTE. WEIGHT FRACTION OF FUEL IN TOTAL FUELS AND OF OXIDANT IN TOTAL OXIDANTS

              THEORETICAL ROCKET PERFORMANCE ASSUMING EQUILIBRIUM

           COMPOSITION DURING EXPANSION FROM INFINITE AREA COMBUSTOR

 Pin =  1813.0 PSIA
 CASE = _______________

             REACTANT                    WT FRACTION      ENERGY      TEMP
                                          (SEE NOTE)     KJ/KG-MOL      K  
 FUEL        CH4                          1.0000000    -79266.074    161.000
 OXIDANT     O2(L)                        1.0000000    -12979.000     90.170

 O/F=    2.40000  %FUEL= 29.411765  R,EQ.RATIO= 1.662193  PHI,EQ.RATIO= 1.662193

                 CHAMBER   THROAT     EXIT     EXIT     EXIT     EXIT     EXIT     EXIT
 Pinf/P            1.0000   1.7689   8.3956   15.648   23.818   32.734   85.335   147.24
 P, BAR            125.00   70.664   14.889   7.9881   5.2481   3.8187   1.4648  0.84893
 T, K             3141.17  2879.62  2211.58  1973.75  1825.05  1718.97  1432.74  1291.56
 RHO, KG/CU M    8.6235 0 5.3394 0 1.4714 0 8.8487-1 6.2877-1 4.8576-1 2.2357-1 1.4373-1
 H, KJ/KG        -1739.55 -2530.07 -4341.95 -4937.51 -5302.29 -5559.89 -6248.59 -6588.08
 U, KJ/KG        -3189.08 -3853.53 -5353.82 -5840.25 -6136.95 -6346.01 -6903.80 -7178.72
 G, KJ/KG        -42930.2 -40291.0 -33342.7 -30819.7 -29234.4 -28101.0 -25036.3 -23524.5
 S, KJ/(KG)(K)    13.1132  13.1132  13.1132  13.1132  13.1132  13.1132  13.1132  13.1132

 M, (1/n)          18.018   18.091   18.172   18.179   18.180   18.181   18.181   18.181
 MW, MOL WT        18.018   18.091   18.172   18.179   18.180   18.181   18.181   18.181
 (dLV/dLP)t      -1.00465 -1.00254 -1.00025 -1.00007 -1.00003 -1.00001 -1.00000 -1.00001
 (dLV/dLT)p        1.0893   1.0526   1.0065   1.0021   1.0009   1.0004   1.0001   1.0001
 Cp, KJ/(KG)(K)    3.4016   3.0774   2.5597   2.4751   2.4397   2.4211   2.4000   2.4131
 GAMMAs            1.1853   1.1946   1.2207   1.2277   1.2311   1.2331   1.2354   1.2338
 SON VEL,M/SEC     1310.8   1257.4   1111.4   1052.8   1013.7    984.6    899.7    853.7
 MACH NUMBER        0.000    1.000    2.053    2.402    2.633    2.808    3.338    3.648

 TRANSPORT PROPERTIES (GASES ONLY)
   CONDUCTIVITY IN UNITS OF MILLIWATTS/(CM)(K)

 VISC,MILLIPOISE  0.97125  0.91255  0.75584  0.69719  0.65958  0.63225  0.55611  0.51698

  WITH EQUILIBRIUM REACTIONS

 Cp, KJ/(KG)(K)    3.4016   3.0774   2.5597   2.4751   2.4397   2.4211   2.4000   2.4131
 CONDUCTIVITY      6.8059   5.5127   3.2775   2.8348   2.6180   2.4832   2.1777   2.0552
 PRANDTL NUMBER    0.4854   0.5094   0.5903   0.6087   0.6147   0.6164   0.6129   0.6070

  WITH FROZEN REACTIONS

 Cp, KJ/(KG)(K)    2.5844   2.5535   2.4461   2.3945   2.3577   2.3293   2.2431   2.1964
 CONDUCTIVITY      4.0965   3.7841   2.9829   2.6966   2.5182   2.3917   2.0578   1.9008
 PRANDTL NUMBER    0.6127   0.6158   0.6198   0.6191   0.6176   0.6158   0.6062   0.5974

 PERFORMANCE PARAMETERS

 Ae/At                      1.0000   2.0000   3.0000   4.0000   5.0000   10.000   15.000
 CSTAR, M/SEC               1861.9   1861.9   1861.9   1861.9   1861.9   1861.9   1861.9
 CF                         0.6753   1.2253   1.3583   1.4337   1.4846   1.6129   1.6725
 Ivac, M/SEC                2309.9   2724.9   2886.0   2982.0   3048.6   3221.2   3303.7
 Isp, M/SEC                 1257.4   2281.4   2529.0   2669.4   2764.2   3003.0   3114.0

 MASS FRACTIONS

 *CO              0.42518  0.42060  0.40230  0.39107  0.38172  0.37355  0.34207  0.31885
 *CO2             0.13872  0.14597  0.17475  0.19241  0.20709  0.21994  0.26939  0.30588
 COOH             0.00002  0.00001  0.00000  0.00000  0.00000  0.00000  0.00000  0.00000
 *H               0.00060  0.00036  0.00004  0.00001  0.00001  0.00000  0.00000  0.00000
 HCO              0.00004  0.00002  0.00000  0.00000  0.00000  0.00000  0.00000  0.00000
 *H2              0.02811  0.02846  0.02991  0.03074  0.03142  0.03201  0.03428  0.03595
 HCHO,formaldehy  0.00001  0.00000  0.00000  0.00000  0.00000  0.00000  0.00000  0.00000
 HCOOH            0.00001  0.00001  0.00000  0.00000  0.00000  0.00000  0.00000  0.00000
 H2O              0.40057  0.40134  0.39281  0.38573  0.37975  0.37450  0.35426  0.33933
 *O               0.00014  0.00004  0.00000  0.00000  0.00000  0.00000  0.00000  0.00000
 *OH              0.00642  0.00314  0.00018  0.00004  0.00001  0.00000  0.00000  0.00000
 *O2              0.00018  0.00005  0.00000  0.00000  0.00000  0.00000  0.00000  0.00000

  * THERMODYNAMIC PROPERTIES FITTED TO 20000.K

 NOTE. WEIGHT FRACTION OF FUEL IN TOTAL FUELS AND OF OXIDANT IN TOTAL OXIDANTS

              THEORETICAL ROCKET PERFORMANCE ASSUMING EQUILIBRIUM

           COMPOSITION DURING EXPANSION FROM INFINITE AREA COMBUSTOR

 Pin =  1813.0 PSIA
 CASE = _______________

             REACTANT                    WT FRACTION      ENERGY      TEMP
                                          (SEE NOTE)     KJ/KG-MOL      K  
 FUEL        CH4                          1.0000000    -79266.074    161.000
 OXIDANT     O2(L)                        1.0000000    -12979.000     90.170

 O/F=    2.40000  %FUEL= 29.411765  R,EQ.RATIO= 1.662193  PHI,EQ.RATIO= 1.662193

                 CHAMBER   THROAT     EXIT     EXIT     EXIT     EXIT     EXIT     EXIT
 Pinf/P            1.0000   1.7689   215.67   366.77   532.06   708.18  1692.59  2771.18
 P, BAR            125.00   70.664  0.57959  0.34082  0.23494  0.17651  0.07385  0.04511
 T, K             3141.17  2879.62  1201.80  1088.74  1017.35   966.68   836.13   781.99
 RHO, KG/CU M    8.6235 0 5.3394 0 1.0546-1 6.8454-2 5.0502-2 3.9935-2 1.9365-2 1.2719-2
 H, KJ/KG        -1739.55 -2530.07 -6805.56 -7083.38 -7262.44 -7392.10 -7749.65 -7930.86
 U, KJ/KG        -3189.08 -3853.53 -7355.15 -7581.25 -7727.64 -7834.09 -8131.03 -8285.49
 G, KJ/KG        -42930.2 -40291.0 -22564.9 -21360.2 -20603.1 -20068.3 -18714.0 -18185.2
 S, KJ/(KG)(K)    13.1132  13.1132  13.1132  13.1132  13.1132  13.1132  13.1132  13.1132

 M, (1/n)          18.018   18.091   18.182   18.182   18.183   18.185   18.229   18.334
 MW, MOL WT        18.018   18.091   18.182   18.182   18.183   18.185   18.229   18.334
 (dLV/dLP)t      -1.00465 -1.00254 -1.00001 -1.00005 -1.00015 -1.00035 -1.00502 -1.01478
 (dLV/dLT)p        1.0893   1.0526   1.0001   1.0006   1.0020   1.0051   1.0819   1.2527
 Cp, KJ/(KG)(K)    3.4016   3.0774   2.4352   2.4862   2.5400   2.5993   3.2877   4.6674
 GAMMAs            1.1853   1.1946   1.2313   1.2257   1.2204   1.2156   1.1868   1.1597
 SON VEL,M/SEC     1310.8   1257.4    822.6    781.2    753.5    733.0    672.8    641.3
 MACH NUMBER        0.000    1.000    3.869    4.185    4.411    4.587    5.153    5.487

 TRANSPORT PROPERTIES (GASES ONLY)
   CONDUCTIVITY IN UNITS OF MILLIWATTS/(CM)(K)

 VISC,MILLIPOISE  0.97125  0.91255  0.49141  0.45826  0.43664  0.42090  0.37843  0.35967

  WITH EQUILIBRIUM REACTIONS

 Cp, KJ/(KG)(K)    3.4016   3.0774   2.4352   2.4862   2.5400   2.5993   3.2877   4.6674
 CONDUCTIVITY      6.8059   5.5127   1.9887   1.9207   1.8895   1.8767   2.0556   2.5747
 PRANDTL NUMBER    0.4854   0.5094   0.6017   0.5932   0.5870   0.5830   0.6053   0.6520

  WITH FROZEN REACTIONS

 Cp, KJ/(KG)(K)    2.5844   2.5535   2.1659   2.1277   2.1045   2.0883   2.0485   2.0301
 CONDUCTIVITY      4.0965   3.7841   1.8052   1.6913   1.6237   1.5776   1.4592   1.4011
 PRANDTL NUMBER    0.6127   0.6158   0.5896   0.5765   0.5659   0.5571   0.5312   0.5211

 PERFORMANCE PARAMETERS

 Ae/At                      1.0000   20.000   30.000   40.000   50.000   100.00   150.00
 CSTAR, M/SEC               1861.9   1861.9   1861.9   1861.9   1861.9   1861.9   1861.9
 CF                         0.6753   1.7096   1.7559   1.7851   1.8059   1.8621   1.8900
 Ivac, M/SEC                2309.9   3355.7   3421.5   3463.5   3493.8   3577.0   3619.7
 Isp, M/SEC                 1257.4   3183.1   3269.2   3323.5   3362.3   3467.0   3518.9

 MASS FRACTIONS

 CH4              0.00000  0.00000  0.00000  0.00001  0.00003  0.00008  0.00115  0.00367
 *CO              0.42518  0.42060  0.30012  0.27072  0.24802  0.22961  0.17089  0.13918
 *CO2             0.13872  0.14597  0.33531  0.38148  0.41708  0.44588  0.53520  0.57811
 COOH             0.00002  0.00001  0.00000  0.00000  0.00000  0.00000  0.00000  0.00000
 *H               0.00060  0.00036  0.00000  0.00000  0.00000  0.00000  0.00000  0.00000
 HCO              0.00004  0.00002  0.00000  0.00000  0.00000  0.00000  0.00000  0.00000
 *H2              0.02811  0.02846  0.03729  0.03941  0.04103  0.04233  0.04602  0.04703
 HCHO,formaldehy  0.00001  0.00000  0.00000  0.00000  0.00000  0.00000  0.00000  0.00000
 HCOOH            0.00001  0.00001  0.00000  0.00000  0.00000  0.00000  0.00000  0.00000
 H2O              0.40057  0.40134  0.32728  0.30839  0.29384  0.28210  0.24674  0.23201
 *O               0.00014  0.00004  0.00000  0.00000  0.00000  0.00000  0.00000  0.00000
 *OH              0.00642  0.00314  0.00000  0.00000  0.00000  0.00000  0.00000  0.00000
 *O2              0.00018  0.00005  0.00000  0.00000  0.00000  0.00000  0.00000  0.00000

  * THERMODYNAMIC PROPERTIES FITTED TO 20000.K

 NOTE. WEIGHT FRACTION OF FUEL IN TOTAL FUELS AND OF OXIDANT IN TOTAL OXIDANTS

              THEORETICAL ROCKET PERFORMANCE ASSUMING EQUILIBRIUM

           COMPOSITION DURING EXPANSION FROM INFINITE AREA COMBUSTOR

 Pin =  1813.0 PSIA
 CASE = _______________

             REACTANT                    WT FRACTION      ENERGY      TEMP
                                          (SEE NOTE)     KJ/KG-MOL      K  
 FUEL        CH4                          1.0000000    -79266.074    161.000
 OXIDANT     O2(L)                        1.0000000    -12979.000     90.170

 O/F=    2.50000  %FUEL= 28.571429  R,EQ.RATIO= 1.595705  PHI,EQ.RATIO= 1.595705

                 CHAMBER   THROAT     EXIT     EXIT     EXIT     EXIT     EXIT     EXIT
 Pinf/P            1.0000   1.7626   8.2881   15.405   23.411   32.139   83.565   144.07
 P, BAR            125.00   70.919   15.082   8.1143   5.3395   3.8894   1.4958  0.86763
 T, K             3240.25  2987.24  2327.30  2085.82  1933.30  1823.90  1526.24  1377.89
 RHO, KG/CU M    8.5753 0 5.3046 0 1.4574 0 8.7543-1 6.2162-1 4.7999-1 2.2062-1 1.4174-1
 H, KJ/KG        -1701.44 -2493.13 -4323.56 -4931.13 -5304.67 -5569.08 -6278.46 -6629.50
 U, KJ/KG        -3159.11 -3830.05 -5358.41 -5858.02 -6163.64 -6379.38 -6956.48 -7241.62
 G, KJ/KG        -43794.1 -41299.0 -34556.4 -32027.0 -30419.4 -29262.5 -26105.1 -24529.0
 S, KJ/(KG)(K)    12.9905  12.9905  12.9905  12.9905  12.9905  12.9905  12.9905  12.9905

 M, (1/n)          18.482   18.578   18.699   18.711   18.714   18.715   18.716   18.716
 MW, MOL WT        18.482   18.578   18.699   18.711   18.714   18.715   18.716   18.716
 (dLV/dLP)t      -1.00654 -1.00380 -1.00047 -1.00015 -1.00007 -1.00003 -1.00000 -1.00000
 (dLV/dLT)p        1.1234   1.0771   1.0118   1.0042   1.0019   1.0010   1.0001   1.0000
 Cp, KJ/(KG)(K)    3.6336   3.2556   2.5970   2.4818   2.4336   2.4077   2.3680   2.3678
 GAMMAs            1.1761   1.1844   1.2118   1.2201   1.2243   1.2268   1.2310   1.2310
 SON VEL,M/SEC     1309.3   1258.3   1119.8   1063.4   1025.5    997.0    913.6    868.0
 MACH NUMBER        0.000    1.000    2.045    2.390    2.618    2.790    3.312    3.617

 TRANSPORT PROPERTIES (GASES ONLY)
   CONDUCTIVITY IN UNITS OF MILLIWATTS/(CM)(K)

 VISC,MILLIPOISE   1.0018  0.94520  0.79084  0.73151  0.69310  0.66503  0.58623  0.54535

  WITH EQUILIBRIUM REACTIONS

 Cp, KJ/(KG)(K)    3.6336   3.2556   2.5970   2.4818   2.4336   2.4077   2.3680   2.3678
 CONDUCTIVITY      7.5199   6.1240   3.5141   2.9735   2.7157   2.5596   2.2156   2.0764
 PRANDTL NUMBER    0.4841   0.5025   0.5844   0.6105   0.6211   0.6256   0.6265   0.6219

  WITH FROZEN REACTIONS

 Cp, KJ/(KG)(K)    2.5585   2.5310   2.4338   2.3857   2.3509   2.3237   2.2393   2.1919
 CONDUCTIVITY      4.1166   3.8210   3.0469   2.7620   2.5820   2.4533   2.1082   1.9421
 PRANDTL NUMBER    0.6226   0.6261   0.6317   0.6319   0.6311   0.6299   0.6227   0.6155

 PERFORMANCE PARAMETERS

 Ae/At                      1.0000   2.0000   3.0000   4.0000   5.0000   10.000   15.000
 CSTAR, M/SEC               1872.7   1872.7   1872.7   1872.7   1872.7   1872.7   1872.7
 CF                         0.6719   1.2229   1.3572   1.4335   1.4852   1.6156   1.6764
 Ivac, M/SEC                2320.8   2741.9   2906.2   3004.5   3072.6   3249.7   3334.4
 Isp, M/SEC                 1258.3   2290.0   2541.5   2684.5   2781.2   3025.6   3139.4

 MASS FRACTIONS

 *CO              0.40287  0.39829  0.38158  0.37163  0.36339  0.35621  0.32867  0.30835
 *CO2             0.15071  0.15796  0.18426  0.19990  0.21284  0.22413  0.26740  0.29932
 COOH             0.00002  0.00001  0.00000  0.00000  0.00000  0.00000  0.00000  0.00000
 *H               0.00073  0.00047  0.00008  0.00003  0.00001  0.00001  0.00000  0.00000
 HCO              0.00004  0.00002  0.00000  0.00000  0.00000  0.00000  0.00000  0.00000
 HO2              0.00001  0.00000  0.00000  0.00000  0.00000  0.00000  0.00000  0.00000
 *H2              0.02455  0.02482  0.02610  0.02685  0.02745  0.02797  0.02996  0.03142
 HCHO,formaldehy  0.00001  0.00000  0.00000  0.00000  0.00000  0.00000  0.00000  0.00000
 HCOOH            0.00001  0.00001  0.00000  0.00000  0.00000  0.00000  0.00000  0.00000
 H2O              0.41061  0.41292  0.40756  0.40150  0.39627  0.39167  0.37397  0.36091
 *O               0.00030  0.00010  0.00000  0.00000  0.00000  0.00000  0.00000  0.00000
 *OH              0.00971  0.00524  0.00042  0.00010  0.00003  0.00001  0.00000  0.00000
 *O2              0.00043  0.00015  0.00000  0.00000  0.00000  0.00000  0.00000  0.00000

  * THERMODYNAMIC PROPERTIES FITTED TO 20000.K

 NOTE. WEIGHT FRACTION OF FUEL IN TOTAL FUELS AND OF OXIDANT IN TOTAL OXIDANTS

              THEORETICAL ROCKET PERFORMANCE ASSUMING EQUILIBRIUM

           COMPOSITION DURING EXPANSION FROM INFINITE AREA COMBUSTOR

 Pin =  1813.0 PSIA
 CASE = _______________

             REACTANT                    WT FRACTION      ENERGY      TEMP
                                          (SEE NOTE)     KJ/KG-MOL      K  
 FUEL        CH4                          1.0000000    -79266.074    161.000
 OXIDANT     O2(L)                        1.0000000    -12979.000     90.170

 O/F=    2.50000  %FUEL= 28.571429  R,EQ.RATIO= 1.595705  PHI,EQ.RATIO= 1.595705

                 CHAMBER   THROAT     EXIT     EXIT     EXIT     EXIT     EXIT     EXIT
 Pinf/P            1.0000   1.7626   210.98   358.94   521.10   694.22  1671.39  2767.75
 P, BAR            125.00   70.919  0.59246  0.34825  0.23988  0.18006  0.07479  0.04516
 T, K             3240.25  2987.24  1282.89  1162.34  1085.60  1030.74   883.77   813.92
 RHO, KG/CU M    8.5753 0 5.3046 0 1.0396-1 6.7444-2 4.9740-2 3.9323-2 1.9055-2 1.2512-2
 H, KJ/KG        -1701.44 -2493.13 -6854.86 -7143.20 -7329.26 -7464.06 -7836.65 -8026.47
 U, KJ/KG        -3159.11 -3830.05 -7424.77 -7659.56 -7811.52 -7921.95 -8229.13 -8387.44
 G, KJ/KG        -43794.1 -41299.0 -23520.3 -22242.6 -21431.8 -20853.9 -19317.3 -18599.7
 S, KJ/(KG)(K)    12.9905  12.9905  12.9905  12.9905  12.9905  12.9905  12.9905  12.9905

 M, (1/n)          18.482   18.578   18.716   18.716   18.716   18.717   18.722   18.747
 MW, MOL WT        18.482   18.578   18.716   18.716   18.716   18.717   18.722   18.747
 (dLV/dLP)t      -1.00654 -1.00380 -1.00000 -1.00001 -1.00002 -1.00004 -1.00066 -1.00325
 (dLV/dLT)p        1.1234   1.0771   1.0000   1.0001   1.0002   1.0006   1.0103   1.0537
 Cp, KJ/(KG)(K)    3.6336   3.2556   2.3784   2.4093   2.4427   2.4752   2.6481   3.0183
 GAMMAs            1.1761   1.1844   1.2297   1.2261   1.2224   1.2190   1.2056   1.1903
 SON VEL,M/SEC     1309.3   1258.3    837.1    795.7    767.8    747.1    687.9    655.5
 MACH NUMBER        0.000    1.000    3.835    4.146    4.370    4.544    5.092    5.426

 TRANSPORT PROPERTIES (GASES ONLY)
   CONDUCTIVITY IN UNITS OF MILLIWATTS/(CM)(K)

 VISC,MILLIPOISE   1.0018  0.94520  0.51849  0.48347  0.46051  0.44371  0.39667  0.37296

  WITH EQUILIBRIUM REACTIONS

 Cp, KJ/(KG)(K)    3.6336   3.2556   2.3784   2.4093   2.4427   2.4752   2.6481   3.0183
 CONDUCTIVITY      7.5199   6.1240   1.9981   1.9127   1.8675   1.8399   1.7981   1.8856
 PRANDTL NUMBER    0.4841   0.5025   0.6172   0.6090   0.6023   0.5969   0.5842   0.5970

  WITH FROZEN REACTIONS

 Cp, KJ/(KG)(K)    2.5585   2.5310   2.1601   2.1189   2.0929   2.0747   2.0279   2.0064
 CONDUCTIVITY      4.1166   3.8210   1.8393   1.7146   1.6395   1.5882   1.4579   1.3952
 PRANDTL NUMBER    0.6226   0.6261   0.6089   0.5975   0.5879   0.5797   0.5518   0.5364

 PERFORMANCE PARAMETERS

 Ae/At                      1.0000   20.000   30.000   40.000   50.000   100.00   150.00
 CSTAR, M/SEC               1872.7   1872.7   1872.7   1872.7   1872.7   1872.7   1872.7
 CF                         0.6719   1.7144   1.7617   1.7915   1.8129   1.8705   1.8993
 Ivac, M/SEC                2320.8   3387.9   3455.5   3498.7   3529.8   3615.0   3658.2
 Isp, M/SEC                 1258.3   3210.4   3299.0   3354.9   3394.9   3502.9   3556.7

 MASS FRACTIONS

 CH4              0.00000  0.00000  0.00000  0.00000  0.00000  0.00001  0.00014  0.00071
 *CO              0.40287  0.39829  0.29189  0.26580  0.24541  0.22868  0.17336  0.14077
 *CO2             0.15071  0.15796  0.32519  0.36617  0.39820  0.42448  0.51104  0.56067
 COOH             0.00002  0.00001  0.00000  0.00000  0.00000  0.00000  0.00000  0.00000
 *H               0.00073  0.00047  0.00000  0.00000  0.00000  0.00000  0.00000  0.00000
 HCO              0.00004  0.00002  0.00000  0.00000  0.00000  0.00000  0.00000  0.00000
 HO2              0.00001  0.00000  0.00000  0.00000  0.00000  0.00000  0.00000  0.00000
 *H2              0.02455  0.02482  0.03261  0.03448  0.03595  0.03715  0.04106  0.04312
 HCHO,formaldehy  0.00001  0.00000  0.00000  0.00000  0.00000  0.00000  0.00000  0.00000
 HCOOH            0.00001  0.00001  0.00000  0.00000  0.00000  0.00000  0.00000  0.00000
 H2O              0.41061  0.41292  0.35032  0.33354  0.32044  0.30968  0.27440  0.25473
 *O               0.00030  0.00010  0.00000  0.00000  0.00000  0.00000  0.00000  0.00000
 *OH              0.00971  0.00524  0.00000  0.00000  0.00000  0.00000  0.00000  0.00000
 *O2              0.00043  0.00015  0.00000  0.00000  0.00000  0.00000  0.00000  0.00000

  * THERMODYNAMIC PROPERTIES FITTED TO 20000.K

 NOTE. WEIGHT FRACTION OF FUEL IN TOTAL FUELS AND OF OXIDANT IN TOTAL OXIDANTS

              THEORETICAL ROCKET PERFORMANCE ASSUMING EQUILIBRIUM

           COMPOSITION DURING EXPANSION FROM INFINITE AREA COMBUSTOR

 Pin =  1813.0 PSIA
 CASE = _______________

             REACTANT                    WT FRACTION      ENERGY      TEMP
                                          (SEE NOTE)     KJ/KG-MOL      K  
 FUEL        CH4                          1.0000000    -79266.074    161.000
 OXIDANT     O2(L)                        1.0000000    -12979.000     90.170

 O/F=    2.60000  %FUEL= 27.777778  R,EQ.RATIO= 1.534332  PHI,EQ.RATIO= 1.534332

                 CHAMBER   THROAT     EXIT     EXIT     EXIT     EXIT     EXIT     EXIT
 Pinf/P            1.0000   1.7565   8.1787   15.155   22.991   31.527   81.745   140.78
 P, BAR            125.00   71.163   15.284   8.2481   5.4368   3.9648   1.5291  0.88792
 T, K             3327.29  3084.15  2439.30  2196.43  2041.15  1928.99  1621.11  1466.16
 RHO, KG/CU M    8.5528 0 5.2864 0 1.4483 0 8.6894-1 6.1655-1 4.7583-1 2.1840-1 1.4022-1
 H, KJ/KG        -1665.44 -2456.03 -4298.62 -4916.44 -5297.89 -5568.58 -6297.46 -6659.57
 U, KJ/KG        -3126.96 -3802.19 -5353.90 -5865.65 -6179.71 -6401.83 -6997.63 -7292.81
 G, KJ/KG        -44486.0 -42147.4 -35691.2 -33183.4 -31566.5 -30393.7 -27160.3 -25528.3
 S, KJ/(KG)(K)    12.8695  12.8695  12.8695  12.8695  12.8695  12.8695  12.8695  12.8695

 M, (1/n)          18.929   19.049   19.219   19.240   19.246   19.248   19.251   19.251
 MW, MOL WT        18.929   19.049   19.219   19.240   19.246   19.248   19.251   19.251
 (dLV/dLP)t      -1.00891 -1.00549 -1.00083 -1.00030 -1.00014 -1.00007 -1.00001 -1.00000
 (dLV/dLT)p        1.1656   1.1093   1.0202   1.0079   1.0038   1.0021   1.0003   1.0001
 Cp, KJ/(KG)(K)    3.9136   3.4846   2.6625   2.5054   2.4389   2.4033   2.3440   2.3329
 GAMMAs            1.1676   1.1746   1.2023   1.2120   1.2171   1.2201   1.2260   1.2272
 SON VEL,M/SEC     1306.3   1257.5   1126.4   1072.6   1036.0   1008.3    926.5    881.5
 MACH NUMBER        0.000    1.000    2.037    2.377    2.602    2.771    3.285    3.585

 TRANSPORT PROPERTIES (GASES ONLY)
   CONDUCTIVITY IN UNITS OF MILLIWATTS/(CM)(K)

 VISC,MILLIPOISE   1.0297  0.97550  0.82512  0.76565  0.72668  0.69802  0.61684  0.57436

  WITH EQUILIBRIUM REACTIONS

 Cp, KJ/(KG)(K)    3.9136   3.4846   2.6625   2.5054   2.4389   2.4033   2.3440   2.3329
 CONDUCTIVITY      8.2752   6.8029   3.8220   3.1584   2.8439   2.6576   2.2631   2.1064
 PRANDTL NUMBER    0.4870   0.4997   0.5748   0.6074   0.6232   0.6312   0.6389   0.6361

  WITH FROZEN REACTIONS

 Cp, KJ/(KG)(K)    2.5327   2.5082   2.4209   2.3765   2.3439   2.3181   2.2364   2.1892
 CONDUCTIVITY      4.1273   3.8490   3.1075   2.8263   2.6461   2.5159   2.1616   1.9876
 PRANDTL NUMBER    0.6319   0.6357   0.6428   0.6438   0.6437   0.6431   0.6382   0.6326

 PERFORMANCE PARAMETERS

 Ae/At                      1.0000   2.0000   3.0000   4.0000   5.0000   10.000   15.000
 CSTAR, M/SEC               1880.5   1880.5   1880.5   1880.5   1880.5   1880.5   1880.5
 CF                         0.6687   1.2204   1.3560   1.4333   1.4858   1.6186   1.6807
 Ivac, M/SEC                2328.0   2754.7   2922.2   3022.5   3092.2   3273.7   3360.8
 Isp, M/SEC                 1257.4   2294.9   2549.9   2695.3   2794.0   3043.7   3160.4

 MASS FRACTIONS

 *CO              0.38087  0.37607  0.36050  0.35169  0.34444  0.33814  0.31407  0.29634
 *CO2             0.16349  0.17109  0.19561  0.20945  0.22084  0.23074  0.26856  0.29642
 COOH             0.00003  0.00001  0.00000  0.00000  0.00000  0.00000  0.00000  0.00000
 *H               0.00084  0.00058  0.00012  0.00005  0.00002  0.00001  0.00000  0.00000
 HCO              0.00004  0.00002  0.00000  0.00000  0.00000  0.00000  0.00000  0.00000
 HO2              0.00001  0.00000  0.00000  0.00000  0.00000  0.00000  0.00000  0.00000
 *H2              0.02138  0.02154  0.02261  0.02328  0.02382  0.02428  0.02602  0.02730
 HCOOH            0.00001  0.00001  0.00000  0.00000  0.00000  0.00000  0.00000  0.00000
 H2O              0.41800  0.42191  0.42025  0.41528  0.41079  0.40679  0.39134  0.37994
 H2O2             0.00001  0.00000  0.00000  0.00000  0.00000  0.00000  0.00000  0.00000
 *O               0.00056  0.00023  0.00001  0.00000  0.00000  0.00000  0.00000  0.00000
 *OH              0.01381  0.00814  0.00089  0.00025  0.00009  0.00004  0.00000  0.00000
 *O2              0.00095  0.00039  0.00001  0.00000  0.00000  0.00000  0.00000  0.00000

  * THERMODYNAMIC PROPERTIES FITTED TO 20000.K

 NOTE. WEIGHT FRACTION OF FUEL IN TOTAL FUELS AND OF OXIDANT IN TOTAL OXIDANTS

              THEORETICAL ROCKET PERFORMANCE ASSUMING EQUILIBRIUM

           COMPOSITION DURING EXPANSION FROM INFINITE AREA COMBUSTOR

 Pin =  1813.0 PSIA
 CASE = _______________

             REACTANT                    WT FRACTION      ENERGY      TEMP
                                          (SEE NOTE)     KJ/KG-MOL      K  
 FUEL        CH4                          1.0000000    -79266.074    161.000
 OXIDANT     O2(L)                        1.0000000    -12979.000     90.170

 O/F=    2.60000  %FUEL= 27.777778  R,EQ.RATIO= 1.534332  PHI,EQ.RATIO= 1.534332

                 CHAMBER   THROAT     EXIT     EXIT     EXIT     EXIT     EXIT     EXIT
 Pinf/P            1.0000   1.7565   206.07   350.54   509.09   678.56  1638.41  2724.23
 P, BAR            125.00   71.163  0.60659  0.35659  0.24553  0.18421  0.07629  0.04588
 T, K             3327.29  3084.15  1366.29  1238.71  1156.93  1098.18   939.23   860.74
 RHO, KG/CU M    8.5528 0 5.2864 0 1.0279-1 6.6652-2 4.9139-2 3.8839-2 1.8808-2 1.2345-2
 H, KJ/KG        -1665.44 -2456.03 -6892.54 -7191.15 -7384.11 -7524.01 -7910.87 -8108.32
 U, KJ/KG        -3126.96 -3802.19 -7482.64 -7726.15 -7883.79 -7998.31 -8316.51 -8480.00
 G, KJ/KG        -44486.0 -42147.4 -24476.1 -23132.7 -22273.2 -21657.0 -19998.2 -19185.6
 S, KJ/(KG)(K)    12.8695  12.8695  12.8695  12.8695  12.8695  12.8695  12.8695  12.8695

 M, (1/n)          18.929   19.049   19.251   19.251   19.251   19.251   19.252   19.255
 MW, MOL WT        18.929   19.049   19.251   19.251   19.251   19.251   19.252   19.255
 (dLV/dLP)t      -1.00891 -1.00549 -1.00000 -1.00000 -1.00000 -1.00001 -1.00008 -1.00040
 (dLV/dLT)p        1.1656   1.1093   1.0000   1.0000   1.0000   1.0001   1.0011   1.0063
 Cp, KJ/(KG)(K)    3.9136   3.4846   2.3342   2.3499   2.3709   2.3927   2.4858   2.5707
 GAMMAs            1.1676   1.1746   1.2271   1.2252   1.2228   1.2203   1.2107   1.2044
 SON VEL,M/SEC     1306.3   1257.5    850.9    809.6    781.7    760.8    700.8    669.1
 MACH NUMBER        0.000    1.000    3.800    4.106    4.327    4.499    5.043    5.365

 TRANSPORT PROPERTIES (GASES ONLY)
   CONDUCTIVITY IN UNITS OF MILLIWATTS/(CM)(K)

 VISC,MILLIPOISE   1.0297  0.97550  0.54628  0.50947  0.48522  0.46742  0.41724  0.39106

  WITH EQUILIBRIUM REACTIONS

 Cp, KJ/(KG)(K)    3.9136   3.4846   2.3342   2.3499   2.3709   2.3927   2.4858   2.5707
 CONDUCTIVITY      8.2752   6.8029   2.0168   1.9156   1.8593   1.8233   1.7412   1.7103
 PRANDTL NUMBER    0.4870   0.4997   0.6323   0.6250   0.6187   0.6134   0.5957   0.5878

  WITH FROZEN REACTIONS

 Cp, KJ/(KG)(K)    2.5327   2.5082   2.1568   2.1137   2.0855   2.0653   2.0122   1.9872
 CONDUCTIVITY      4.1273   3.8490   1.8783   1.7436   1.6611   1.6041   1.4600   1.3919
 PRANDTL NUMBER    0.6319   0.6357   0.6273   0.6176   0.6092   0.6018   0.5750   0.5583

 PERFORMANCE PARAMETERS

 Ae/At                      1.0000   20.000   30.000   40.000   50.000   100.00   150.00
 CSTAR, M/SEC               1880.5   1880.5   1880.5   1880.5   1880.5   1880.5   1880.5
 CF                         0.6687   1.7194   1.7678   1.7984   1.8203   1.8795   1.9089
 Ivac, M/SEC                2328.0   3415.8   3485.3   3529.7   3561.6   3649.0   3693.2
 Isp, M/SEC                 1257.4   3233.3   3324.4   3381.9   3423.0   3534.2   3589.7

 MASS FRACTIONS

 CH4              0.00000  0.00000  0.00000  0.00000  0.00000  0.00000  0.00002  0.00008
 *CO              0.38087  0.37607  0.28194  0.25899  0.24087  0.22586  0.17518  0.14410
 *CO2             0.16349  0.17109  0.31904  0.35511  0.38357  0.40715  0.48675  0.53540
 COOH             0.00003  0.00001  0.00000  0.00000  0.00000  0.00000  0.00000  0.00000
 *H               0.00084  0.00058  0.00000  0.00000  0.00000  0.00000  0.00000  0.00000
 HCO              0.00004  0.00002  0.00000  0.00000  0.00000  0.00000  0.00000  0.00000
 HO2              0.00001  0.00000  0.00000  0.00000  0.00000  0.00000  0.00000  0.00000
 *H2              0.02138  0.02154  0.02833  0.02998  0.03129  0.03237  0.03601  0.03821
 HCOOH            0.00001  0.00001  0.00000  0.00000  0.00000  0.00000  0.00000  0.00000
 H2O              0.41800  0.42191  0.37068  0.35592  0.34427  0.33462  0.30205  0.28221
 H2O2             0.00001  0.00000  0.00000  0.00000  0.00000  0.00000  0.00000  0.00000
 *O               0.00056  0.00023  0.00000  0.00000  0.00000  0.00000  0.00000  0.00000
 *OH              0.01381  0.00814  0.00000  0.00000  0.00000  0.00000  0.00000  0.00000
 *O2              0.00095  0.00039  0.00000  0.00000  0.00000  0.00000  0.00000  0.00000

  * THERMODYNAMIC PROPERTIES FITTED TO 20000.K

 NOTE. WEIGHT FRACTION OF FUEL IN TOTAL FUELS AND OF OXIDANT IN TOTAL OXIDANTS

              THEORETICAL ROCKET PERFORMANCE ASSUMING EQUILIBRIUM

           COMPOSITION DURING EXPANSION FROM INFINITE AREA COMBUSTOR

 Pin =  1813.0 PSIA
 CASE = _______________

             REACTANT                    WT FRACTION      ENERGY      TEMP
                                          (SEE NOTE)     KJ/KG-MOL      K  
 FUEL        CH4                          1.0000000    -79266.074    161.000
 OXIDANT     O2(L)                        1.0000000    -12979.000     90.170

 O/F=    2.70000  %FUEL= 27.027027  R,EQ.RATIO= 1.477505  PHI,EQ.RATIO= 1.477505

                 CHAMBER   THROAT     EXIT     EXIT     EXIT     EXIT     EXIT     EXIT
 Pinf/P            1.0000   1.7508   8.0687   14.900   22.561   30.899   79.876   137.39
 P, BAR            125.00   71.394   15.492   8.3894   5.5404   4.0454   1.5649  0.90985
 T, K             3402.32  3169.75  2546.49  2304.99  2148.28  2034.11  1717.37  1556.35
 RHO, KG/CU M    8.5527 0 5.2828 0 1.4437 0 8.6517-1 6.1339-1 4.7313-1 2.1683-1 1.3912-1
 H, KJ/KG        -1631.40 -2418.91 -4267.55 -4893.73 -5282.15 -5558.58 -6305.86 -6678.62
 U, KJ/KG        -3092.92 -3770.36 -5340.62 -5863.41 -6185.40 -6413.62 -7027.57 -7332.65
 G, KJ/KG        -45012.5 -42834.7 -36736.6 -34283.4 -32673.7 -31494.5 -28203.1 -26522.8
 S, KJ/(KG)(K)    12.7505  12.7505  12.7505  12.7505  12.7505  12.7505  12.7505  12.7505

 M, (1/n)          19.355   19.501   19.731   19.764   19.775   19.780   19.785   19.786
 MW, MOL WT        19.355   19.501   19.731   19.764   19.775   19.780   19.785   19.786
 (dLV/dLP)t      -1.01180 -1.00768 -1.00140 -1.00055 -1.00027 -1.00015 -1.00002 -1.00000
 (dLV/dLT)p        1.2163   1.1504   1.0332   1.0141   1.0072   1.0041   1.0006   1.0002
 Cp, KJ/(KG)(K)    4.2419   3.7708   2.7664   2.5530   2.4607   2.4111   2.3274   2.3063
 GAMMAs            1.1601   1.1655   1.1922   1.2032   1.2093   1.2131   1.2206   1.2229
 SON VEL,M/SEC     1302.1   1255.0   1131.1   1080.2   1045.1   1018.4    938.6    894.3
 MACH NUMBER        0.000    1.000    2.030    2.365    2.585    2.752    3.258    3.553

 TRANSPORT PROPERTIES (GASES ONLY)
   CONDUCTIVITY IN UNITS OF MILLIWATTS/(CM)(K)

 VISC,MILLIPOISE   1.0548   1.0033  0.85845  0.79950  0.76029  0.73122  0.64801  0.60404

  WITH EQUILIBRIUM REACTIONS

 Cp, KJ/(KG)(K)    4.2419   3.7708   2.7664   2.5530   2.4607   2.4111   2.3274   2.3063
 CONDUCTIVITY      9.0644   7.5437   4.2145   3.4050   3.0163   2.7881   2.3231   2.1460
 PRANDTL NUMBER    0.4936   0.5015   0.5635   0.5995   0.6202   0.6323   0.6492   0.6491

  WITH FROZEN REACTIONS

 Cp, KJ/(KG)(K)    2.5070   2.4852   2.4075   2.3670   2.3367   2.3124   2.2341   2.1877
 CONDUCTIVITY      4.1296   3.8686   3.1648   2.8899   2.7107   2.5801   2.2186   2.0376
 PRANDTL NUMBER    0.6403   0.6445   0.6530   0.6548   0.6554   0.6554   0.6525   0.6486

 PERFORMANCE PARAMETERS

 Ae/At                      1.0000   2.0000   3.0000   4.0000   5.0000   10.000   15.000
 CSTAR, M/SEC               1885.4   1885.4   1885.4   1885.4   1885.4   1885.4   1885.4
 CF                         0.6656   1.2179   1.3548   1.4332   1.4865   1.6217   1.6852
 Ivac, M/SEC                2331.9   2763.5   2934.0   3036.4   3107.7   3293.6   3383.0
 Isp, M/SEC                 1255.0   2296.2   2554.3   2702.1   2802.6   3057.6   3177.2

 MASS FRACTIONS

 *CO              0.35926  0.35402  0.33898  0.33118  0.32483  0.31932  0.29836  0.28294
 *CO2             0.17685  0.18515  0.20883  0.22109  0.23106  0.23971  0.27266  0.29688
 COOH             0.00003  0.00002  0.00000  0.00000  0.00000  0.00000  0.00000  0.00000
 *H               0.00093  0.00067  0.00017  0.00008  0.00004  0.00002  0.00000  0.00000
 HCO              0.00004  0.00002  0.00000  0.00000  0.00000  0.00000  0.00000  0.00000
 HO2              0.00002  0.00001  0.00000  0.00000  0.00000  0.00000  0.00000  0.00000
 *H2              0.01858  0.01862  0.01944  0.02003  0.02050  0.02090  0.02243  0.02354
 HCOOH            0.00001  0.00001  0.00000  0.00000  0.00000  0.00000  0.00000  0.00000
 H2O              0.42283  0.42830  0.43077  0.42706  0.42334  0.41993  0.40655  0.39664
 H2O2             0.00001  0.00000  0.00000  0.00000  0.00000  0.00000  0.00000  0.00000
 *O               0.00095  0.00045  0.00002  0.00000  0.00000  0.00000  0.00000  0.00000
 *OH              0.01861  0.01184  0.00175  0.00056  0.00023  0.00011  0.00001  0.00000
 *O2              0.00187  0.00090  0.00004  0.00000  0.00000  0.00000  0.00000  0.00000

  * THERMODYNAMIC PROPERTIES FITTED TO 20000.K

 NOTE. WEIGHT FRACTION OF FUEL IN TOTAL FUELS AND OF OXIDANT IN TOTAL OXIDANTS

              THEORETICAL ROCKET PERFORMANCE ASSUMING EQUILIBRIUM

           COMPOSITION DURING EXPANSION FROM INFINITE AREA COMBUSTOR

 Pin =  1813.0 PSIA
 CASE = _______________

             REACTANT                    WT FRACTION      ENERGY      TEMP
                                          (SEE NOTE)     KJ/KG-MOL      K  
 FUEL        CH4                          1.0000000    -79266.074    161.000
 OXIDANT     O2(L)                        1.0000000    -12979.000     90.170

 O/F=    2.70000  %FUEL= 27.027027  R,EQ.RATIO= 1.477505  PHI,EQ.RATIO= 1.477505

                 CHAMBER   THROAT     EXIT     EXIT     EXIT     EXIT     EXIT     EXIT
 Pinf/P            1.0000   1.7508   200.97   341.71   496.28   661.64  1600.43  2665.60
 P, BAR            125.00   71.394  0.62198  0.36580  0.25187  0.18892  0.07810  0.04689
 T, K             3402.32  3169.75  1451.96  1317.77  1231.20  1168.72   998.43   913.61
 RHO, KG/CU M    8.5527 0 5.2828 0 1.0194-1 6.6058-2 4.8682-2 3.8467-2 1.8615-2 1.2215-2
 H, KJ/KG        -1631.40 -2418.91 -6918.96 -7227.62 -7427.40 -7572.38 -7973.62 -8178.41
 U, KJ/KG        -3092.92 -3770.36 -7529.12 -7781.39 -7944.79 -8063.51 -8393.19 -8562.32
 G, KJ/KG        -45012.5 -42834.7 -25432.1 -24029.8 -23125.8 -22474.1 -20704.1 -19827.3
 S, KJ/(KG)(K)    12.7505  12.7505  12.7505  12.7505  12.7505  12.7505  12.7505  12.7505

 M, (1/n)          19.355   19.501   19.786   19.786   19.786   19.786   19.786   19.786
 MW, MOL WT        19.355   19.501   19.786   19.786   19.786   19.786   19.786   19.786
 (dLV/dLP)t      -1.01180 -1.00768 -1.00000 -1.00000 -1.00000 -1.00000 -1.00001 -1.00005
 (dLV/dLT)p        1.2163   1.1504   1.0001   1.0000   1.0000   1.0000   1.0001   1.0007
 Cp, KJ/(KG)(K)    4.2419   3.7708   2.3000   2.3031   2.3140   2.3274   2.3925   2.4391
 GAMMAs            1.1601   1.1655   1.2236   1.2232   1.2219   1.2203   1.2131   1.2084
 SON VEL,M/SEC     1302.1   1255.0    864.0    823.0    795.1    774.2    713.4    681.1
 MACH NUMBER        0.000    1.000    3.764    4.065    4.282    4.453    4.992    5.313

 TRANSPORT PROPERTIES (GASES ONLY)
   CONDUCTIVITY IN UNITS OF MILLIWATTS/(CM)(K)

 VISC,MILLIPOISE   1.0548   1.0033  0.57482  0.53632  0.51082  0.49204  0.43887  0.41097

  WITH EQUILIBRIUM REACTIONS

 Cp, KJ/(KG)(K)    4.2419   3.7708   2.3000   2.3031   2.3140   2.3274   2.3925   2.4391
 CONDUCTIVITY      9.0644   7.5437   2.0447   1.9281   1.8612   1.8172   1.7137   1.6653
 PRANDTL NUMBER    0.4936   0.5015   0.6466   0.6406   0.6351   0.6302   0.6127   0.6019

  WITH FROZEN REACTIONS

 Cp, KJ/(KG)(K)    2.5070   2.4852   2.1552   2.1111   2.0815   2.0598   2.0012   1.9725
 CONDUCTIVITY      4.1296   3.8686   1.9224   1.7784   1.6888   1.6262   1.4664   1.3919
 PRANDTL NUMBER    0.6403   0.6445   0.6444   0.6366   0.6296   0.6232   0.5989   0.5824

 PERFORMANCE PARAMETERS

 Ae/At                      1.0000   20.000   30.000   40.000   50.000   100.00   150.00
 CSTAR, M/SEC               1885.4   1885.4   1885.4   1885.4   1885.4   1885.4   1885.4
 CF                         0.6656   1.7248   1.7744   1.8058   1.8283   1.8890   1.9193
 Ivac, M/SEC                2331.9   3439.6   3511.0   3556.7   3589.5   3679.3   3724.7
 Isp, M/SEC                 1255.0   3251.9   3345.5   3404.7   3447.0   3561.5   3618.6

 MASS FRACTIONS

 CH4              0.00000  0.00000  0.00000  0.00000  0.00000  0.00000  0.00000  0.00001
 *CO              0.35926  0.35402  0.27041  0.25035  0.23441  0.22111  0.17537  0.14660
 *CO2             0.17685  0.18515  0.31657  0.34808  0.37312  0.39403  0.46588  0.51107
 COOH             0.00003  0.00002  0.00000  0.00000  0.00000  0.00000  0.00000  0.00000
 *H               0.00093  0.00067  0.00000  0.00000  0.00000  0.00000  0.00000  0.00000
 HCO              0.00004  0.00002  0.00000  0.00000  0.00000  0.00000  0.00000  0.00000
 HO2              0.00002  0.00001  0.00000  0.00000  0.00000  0.00000  0.00000  0.00000
 *H2              0.01858  0.01862  0.02444  0.02589  0.02703  0.02799  0.03128  0.03335
 HCOOH            0.00001  0.00001  0.00000  0.00000  0.00000  0.00000  0.00000  0.00000
 H2O              0.42283  0.42830  0.38858  0.37568  0.36543  0.35687  0.32746  0.30897
 H2O2             0.00001  0.00000  0.00000  0.00000  0.00000  0.00000  0.00000  0.00000
 *O               0.00095  0.00045  0.00000  0.00000  0.00000  0.00000  0.00000  0.00000
 *OH              0.01861  0.01184  0.00000  0.00000  0.00000  0.00000  0.00000  0.00000
 *O2              0.00187  0.00090  0.00000  0.00000  0.00000  0.00000  0.00000  0.00000

  * THERMODYNAMIC PROPERTIES FITTED TO 20000.K

 NOTE. WEIGHT FRACTION OF FUEL IN TOTAL FUELS AND OF OXIDANT IN TOTAL OXIDANTS

              THEORETICAL ROCKET PERFORMANCE ASSUMING EQUILIBRIUM

           COMPOSITION DURING EXPANSION FROM INFINITE AREA COMBUSTOR

 Pin =  1813.0 PSIA
 CASE = _______________

             REACTANT                    WT FRACTION      ENERGY      TEMP
                                          (SEE NOTE)     KJ/KG-MOL      K  
 FUEL        CH4                          1.0000000    -79266.074    161.000
 OXIDANT     O2(L)                        1.0000000    -12979.000     90.170

 O/F=    2.80000  %FUEL= 26.315789  R,EQ.RATIO= 1.424737  PHI,EQ.RATIO= 1.424737

                 CHAMBER   THROAT     EXIT     EXIT     EXIT     EXIT     EXIT     EXIT
 Pinf/P            1.0000   1.7457   7.9605   14.642   22.123   30.256   77.960   133.90
 P, BAR            125.00   71.605   15.702   8.5368   5.6502   4.1314   1.6034  0.93352
 T, K             3465.61  3243.64  2647.40  2410.47  2254.08  2138.92  1815.05  1648.49
 RHO, KG/CU M    8.5723 0 5.2922 0 1.4432 0 8.6389-1 6.1201-1 4.7179-1 2.1588-1 1.3840-1
 H, KJ/KG        -1599.14 -2382.00 -4230.89 -4863.33 -5257.66 -5539.22 -6303.78 -6686.83
 U, KJ/KG        -3057.32 -3735.04 -5318.92 -5851.51 -6180.88 -6414.90 -7046.51 -7361.36
 G, KJ/KG        -45383.0 -43361.5 -37677.6 -35316.8 -33735.3 -32561.9 -29234.8 -27513.6
 S, KJ/(KG)(K)    12.6338  12.6338  12.6338  12.6338  12.6338  12.6338  12.6338  12.6338

 M, (1/n)          19.761   19.932   20.231   20.282   20.300   20.309   20.319   20.320
 MW, MOL WT        19.761   19.932   20.231   20.282   20.300   20.309   20.319   20.320
 (dLV/dLP)t      -1.01519 -1.01043 -1.00228 -1.00097 -1.00050 -1.00029 -1.00004 -1.00001
 (dLV/dLT)p        1.2752   1.2015   1.0527   1.0242   1.0131   1.0079   1.0013   1.0004
 Cp, KJ/(KG)(K)    4.6125   4.1172   2.9222   2.6354   2.5066   2.4366   2.3187   2.2870
 GAMMAs            1.1536   1.1572   1.1814   1.1936   1.2008   1.2054   1.2149   1.2181
 SON VEL,M/SEC     1297.0   1251.3   1133.8   1086.0   1052.9   1027.4    949.9    906.4
 MACH NUMBER        0.000    1.000    2.024    2.353    2.569    2.732    3.229    3.519

 TRANSPORT PROPERTIES (GASES ONLY)
   CONDUCTIVITY IN UNITS OF MILLIWATTS/(CM)(K)

 VISC,MILLIPOISE   1.0770   1.0282  0.89047  0.83283  0.79382  0.76459  0.67977  0.63445

  WITH EQUILIBRIUM REACTIONS

 Cp, KJ/(KG)(K)    4.6125   4.1172   2.9222   2.6354   2.5066   2.4366   2.3187   2.2870
 CONDUCTIVITY      9.8782   8.3403   4.7030   3.7304   3.2492   2.9653   2.4015   2.1976
 PRANDTL NUMBER    0.5029   0.5076   0.5533   0.5884   0.6124   0.6283   0.6563   0.6603

  WITH FROZEN REACTIONS

 Cp, KJ/(KG)(K)    2.4815   2.4621   2.3935   2.3569   2.3291   2.3065   2.2322   2.1871
 CONDUCTIVITY      4.1246   3.8802   3.2182   2.9525   2.7762   2.6460   2.2794   2.0924
 PRANDTL NUMBER    0.6480   0.6525   0.6623   0.6648   0.6660   0.6665   0.6657   0.6632

 PERFORMANCE PARAMETERS

 Ae/At                      1.0000   2.0000   3.0000   4.0000   5.0000   10.000   15.000
 CSTAR, M/SEC               1887.6   1887.6   1887.6   1887.6   1887.6   1887.6   1887.6
 CF                         0.6629   1.2154   1.3536   1.4330   1.4871   1.6250   1.6899
 Ivac, M/SEC                2332.6   2768.5   2941.8   3046.3   3119.1   3309.6   3401.3
 Isp, M/SEC                 1251.3   2294.2   2555.1   2705.0   2807.2   3067.5   3189.9

 MASS FRACTIONS

 *CO              0.33817  0.33226  0.31701  0.31002  0.30447  0.29969  0.28155  0.26822
 *CO2             0.19048  0.19982  0.22383  0.23482  0.24353  0.25104  0.27956  0.30050
 COOH             0.00004  0.00002  0.00000  0.00000  0.00000  0.00000  0.00000  0.00000
 *H               0.00099  0.00075  0.00024  0.00012  0.00007  0.00004  0.00001  0.00000
 HCO              0.00004  0.00002  0.00000  0.00000  0.00000  0.00000  0.00000  0.00000
 HO2              0.00003  0.00001  0.00000  0.00000  0.00000  0.00000  0.00000  0.00000
 *H2              0.01613  0.01606  0.01659  0.01708  0.01749  0.01784  0.01916  0.02013
 HCOOH            0.00001  0.00001  0.00000  0.00000  0.00000  0.00000  0.00000  0.00000
 H2O              0.42529  0.43213  0.43898  0.43676  0.43391  0.43111  0.41970  0.41115
 H2O2             0.00001  0.00001  0.00000  0.00000  0.00000  0.00000  0.00000  0.00000
 *O               0.00150  0.00079  0.00005  0.00001  0.00000  0.00000  0.00000  0.00000
 *OH              0.02389  0.01626  0.00317  0.00117  0.00053  0.00027  0.00002  0.00000
 *O2              0.00341  0.00186  0.00012  0.00002  0.00001  0.00000  0.00000  0.00000

  * THERMODYNAMIC PROPERTIES FITTED TO 20000.K

 NOTE. WEIGHT FRACTION OF FUEL IN TOTAL FUELS AND OF OXIDANT IN TOTAL OXIDANTS

              THEORETICAL ROCKET PERFORMANCE ASSUMING EQUILIBRIUM

           COMPOSITION DURING EXPANSION FROM INFINITE AREA COMBUSTOR

 Pin =  1813.0 PSIA
 CASE = _______________

             REACTANT                    WT FRACTION      ENERGY      TEMP
                                          (SEE NOTE)     KJ/KG-MOL      K  
 FUEL        CH4                          1.0000000    -79266.074    161.000
[...]
 Ivac, M/SEC                2247.3   3460.7   3555.6   3617.9   3663.7   3791.8   3857.4
 Isp, M/SEC                 1190.6   3216.2   3331.9   3407.9   3463.8   3621.8   3703.5

 MASS FRACTIONS

 *CO              0.17885  0.16646  0.06789  0.05969  0.05482  0.05171  0.04564  0.04323
 *CO2             0.29043  0.30994  0.46486  0.47774  0.48540  0.49028  0.49981  0.50359
 COOH             0.00004  0.00003  0.00000  0.00000  0.00000  0.00000  0.00000  0.00000
 *H               0.00079  0.00067  0.00010  0.00007  0.00005  0.00004  0.00001  0.00001
 HCO              0.00002  0.00001  0.00000  0.00000  0.00000  0.00000  0.00000  0.00000
 HO2              0.00041  0.00028  0.00000  0.00000  0.00000  0.00000  0.00000  0.00000
 *H2              0.00489  0.00449  0.00195  0.00178  0.00170  0.00166  0.00173  0.00186
 HCOOH            0.00001  0.00000  0.00000  0.00000  0.00000  0.00000  0.00000  0.00000
 H2O              0.38399  0.39287  0.44495  0.44824  0.45009  0.45116  0.45203  0.45110
 H2O2             0.00007  0.00004  0.00000  0.00000  0.00000  0.00000  0.00000  0.00000
 *O               0.01012  0.00830  0.00052  0.00027  0.00015  0.00008  0.00001  0.00000
 *OH              0.06243  0.05439  0.00876  0.00585  0.00408  0.00290  0.00062  0.00018
 *O2              0.06794  0.06253  0.01098  0.00635  0.00371  0.00216  0.00015  0.00002

  * THERMODYNAMIC PROPERTIES FITTED TO 20000.K

 NOTE. WEIGHT FRACTION OF FUEL IN TOTAL FUELS AND OF OXIDANT IN TOTAL OXIDANTS

              THEORETICAL ROCKET PERFORMANCE ASSUMING EQUILIBRIUM

           COMPOSITION DURING EXPANSION FROM INFINITE AREA COMBUSTOR

 Pin =  1813.0 PSIA
 CASE = _______________

             REACTANT                    WT FRACTION      ENERGY      TEMP
                                          (SEE NOTE)     KJ/KG-MOL      K  
 FUEL        CH4                          1.0000000    -79266.074    161.000
 OXIDANT     O2(L)                        1.0000000    -12979.000     90.170

 O/F=    3.90000  %FUEL= 20.408163  R,EQ.RATIO= 1.022888  PHI,EQ.RATIO= 1.022888

                 CHAMBER   THROAT     EXIT     EXIT     EXIT     EXIT     EXIT     EXIT
 Pinf/P            1.0000   1.7262   7.4643   13.291   19.583   26.240   63.265   104.44
 P, BAR            125.00   72.414   16.746   9.4046   6.3831   4.7637   1.9758   1.1968
 T, K             3661.92  3487.56  3077.36  2933.84  2841.92  2774.56  2580.57  2474.29
 RHO, KG/CU M    9.4339 0 5.8149 0 1.5763 0 9.4014-1 6.6405-1 5.1061-1 2.3153-1 1.4755-1
 H, KJ/KG        -1331.20 -2032.46 -3717.03 -4311.88 -4691.91 -4969.04 -5754.49 -6171.61
 U, KJ/KG        -2656.22 -3277.78 -4779.43 -5312.21 -5653.15 -5901.98 -6607.86 -6982.73
 G, KJ/KG        -43599.0 -42287.6 -39237.5 -38175.8 -37494.8 -36994.4 -35540.8 -34731.1
 S, KJ/(KG)(K)    11.5425  11.5425  11.5425  11.5425  11.5425  11.5425  11.5425  11.5425

 M, (1/n)          22.979   23.285   24.084   24.385   24.582   24.727   25.143   25.363
 MW, MOL WT        22.979   23.285   24.084   24.385   24.582   24.727   25.143   25.363
 (dLV/dLP)t      -1.04241 -1.03893 -1.02958 -1.02594 -1.02352 -1.02172 -1.01645 -1.01357
 (dLV/dLT)p        1.7383   1.7138   1.6192   1.5710   1.5355   1.5071   1.4143   1.3573
 Cp, KJ/(KG)(K)    6.9362   6.9445   6.7096   6.5064   6.3332   6.1827   5.6278   5.2440
 GAMMAs            1.1302   1.1262   1.1177   1.1153   1.1141   1.1133   1.1125   1.1131
 SON VEL,M/SEC     1223.7   1184.3   1089.7   1056.3   1034.8   1019.2    974.3    950.2
 MACH NUMBER        0.000    1.000    2.005    2.312    2.505    2.647    3.053    3.275

 TRANSPORT PROPERTIES (GASES ONLY)
   CONDUCTIVITY IN UNITS OF MILLIWATTS/(CM)(K)

 VISC,MILLIPOISE   1.1737   1.1381   1.0530   1.0226   1.0028  0.98819  0.94492  0.92034

  WITH EQUILIBRIUM REACTIONS

 Cp, KJ/(KG)(K)    6.9362   6.9445   6.7096   6.5064   6.3332   6.1827   5.6278   5.2440
 CONDUCTIVITY     15.0139  14.4034  12.3960  11.4707  10.8117  10.2960   8.6638   7.6905
 PRANDTL NUMBER    0.5422   0.5487   0.5700   0.5800   0.5874   0.5934   0.6138   0.6276

  WITH FROZEN REACTIONS

 Cp, KJ/(KG)(K)    2.2364   2.2263   2.1984   2.1867   2.1785   2.1720   2.1512   2.1381
 CONDUCTIVITY      3.8188   3.6628   3.2901   3.1568   3.0702   3.0060   2.8171   2.7104
 PRANDTL NUMBER    0.6874   0.6917   0.7036   0.7083   0.7116   0.7140   0.7216   0.7260

 PERFORMANCE PARAMETERS

 Ae/At                      1.0000   2.0000   3.0000   4.0000   5.0000   10.000   15.000
 CSTAR, M/SEC               1815.1   1815.1   1815.1   1815.1   1815.1   1815.1   1815.1
 CF                         0.6524   1.2034   1.3451   1.4283   1.4860   1.6386   1.7141
 Ivac, M/SEC                2235.8   2670.8   2851.3   2963.3   3043.2   3261.2   3372.1
 Isp, M/SEC                 1184.3   2184.4   2441.6   2592.6   2697.3   2974.3   3111.4

 MASS FRACTIONS

 *CO              0.16816  0.15565  0.12132  0.10780  0.09880  0.09210  0.07256  0.06203
 *CO2             0.29558  0.31526  0.36923  0.39049  0.40462  0.41516  0.44586  0.46240
 COOH             0.00004  0.00003  0.00001  0.00000  0.00000  0.00000  0.00000  0.00000
 *H               0.00074  0.00063  0.00039  0.00032  0.00027  0.00024  0.00016  0.00012
 HCO              0.00002  0.00001  0.00000  0.00000  0.00000  0.00000  0.00000  0.00000
 HO2              0.00046  0.00031  0.00010  0.00006  0.00004  0.00003  0.00001  0.00001
 *H2              0.00445  0.00406  0.00311  0.00277  0.00255  0.00239  0.00192  0.00168
 HCOOH            0.00001  0.00000  0.00000  0.00000  0.00000  0.00000  0.00000  0.00000
 H2O              0.37806  0.38673  0.40739  0.41452  0.41899  0.42221  0.43102  0.43548
 H2O2             0.00007  0.00005  0.00001  0.00001  0.00001  0.00000  0.00000  0.00000
 *O               0.01073  0.00886  0.00491  0.00373  0.00306  0.00260  0.00149  0.00102
 *OH              0.06374  0.05575  0.03697  0.03064  0.02672  0.02395  0.01651  0.01289
 *O2              0.07795  0.07265  0.05655  0.04967  0.04494  0.04133  0.03046  0.02438

  * THERMODYNAMIC PROPERTIES FITTED TO 20000.K

 NOTE. WEIGHT FRACTION OF FUEL IN TOTAL FUELS AND OF OXIDANT IN TOTAL OXIDANTS

              THEORETICAL ROCKET PERFORMANCE ASSUMING EQUILIBRIUM

           COMPOSITION DURING EXPANSION FROM INFINITE AREA COMBUSTOR

 Pin =  1813.0 PSIA
 CASE = _______________

             REACTANT                    WT FRACTION      ENERGY      TEMP
                                          (SEE NOTE)     KJ/KG-MOL      K  
 FUEL        CH4                          1.0000000    -79266.074    161.000
 OXIDANT     O2(L)                        1.0000000    -12979.000     90.170

 O/F=    3.90000  %FUEL= 20.408163  R,EQ.RATIO= 1.022888  PHI,EQ.RATIO= 1.022888

                 CHAMBER   THROAT     EXIT     EXIT     EXIT     EXIT     EXIT     EXIT
 Pinf/P            1.0000   1.7262   148.46   242.75   343.45   449.26  1036.16  1699.28
 P, BAR            125.00   72.414  0.84197  0.51493  0.36396  0.27824  0.12064  0.07356
 T, K             3661.92  3487.56  2400.79  2298.55  2226.02  2169.17  1982.54  1859.50
 RHO, KG/CU M    9.4339 0 5.8149 0 1.0759-1 6.9238-2 5.0771-2 3.9963-2 1.9109-2 1.2453-2
 H, KJ/KG        -1331.20 -2032.46 -6451.83 -6827.03 -7080.42 -7270.17 -7825.05 -8127.40
 U, KJ/KG        -2656.22 -3277.78 -7234.37 -7570.73 -7797.27 -7966.40 -8456.37 -8718.13
 G, KJ/KG        -43599.0 -42287.6 -34163.0 -33358.1 -32774.3 -32307.9 -30708.5 -29590.7
 S, KJ/(KG)(K)    11.5425  11.5425  11.5425  11.5425  11.5425  11.5425  11.5425  11.5425

 M, (1/n)          22.979   23.285   25.509   25.698   25.819   25.905   26.110   26.173
 MW, MOL WT        22.979   23.285   25.509   25.698   25.819   25.905   26.110   26.173
 (dLV/dLP)t      -1.04241 -1.03893 -1.01163 -1.00902 -1.00727 -1.00596 -1.00226 -1.00076
 (dLV/dLT)p        1.7383   1.7138   1.3159   1.2565   1.2137   1.1800   1.0751   1.0271
 Cp, KJ/(KG)(K)    6.9362   6.9445   4.9459   4.4894   4.1386   3.8496   2.8584   2.3406
 GAMMAs            1.1302   1.1262   1.1142   1.1170   1.1203   1.1238   1.1448   1.1661
 SON VEL,M/SEC     1223.7   1184.3    933.8    911.4    896.1    884.5    850.2    830.0
 MACH NUMBER        0.000    1.000    3.427    3.637    3.784    3.896    4.239    4.442

 TRANSPORT PROPERTIES (GASES ONLY)
   CONDUCTIVITY IN UNITS OF MILLIWATTS/(CM)(K)

 VISC,MILLIPOISE   1.1737   1.1381  0.90287  0.87781  0.85942  0.84459  0.79305  0.75653

  WITH EQUILIBRIUM REACTIONS

 Cp, KJ/(KG)(K)    6.9362   6.9445   4.9459   4.4894   4.1386   3.8496   2.8584   2.3406
 CONDUCTIVITY     15.0139  14.4034   6.9941   6.0079   5.3069   4.7640   3.1362   2.3992
 PRANDTL NUMBER    0.5422   0.5487   0.6385   0.6559   0.6702   0.6825   0.7228   0.7380

  WITH FROZEN REACTIONS

 Cp, KJ/(KG)(K)    2.2364   2.2263   2.1281   2.1131   2.1014   2.0915   2.0549   2.0266
 CONDUCTIVITY      3.8188   3.6628   2.6349   2.5274   2.4492   2.3866   2.1737   2.0275
 PRANDTL NUMBER    0.6874   0.6917   0.7292   0.7339   0.7374   0.7402   0.7497   0.7562

 PERFORMANCE PARAMETERS

 Ae/At                      1.0000   20.000   30.000   40.000   50.000   100.00   150.00
 CSTAR, M/SEC               1815.1   1815.1   1815.1   1815.1   1815.1   1815.1   1815.1
 CF                         0.6524   1.7631   1.8265   1.8681   1.8987   1.9854   2.0311
 Ivac, M/SEC                2235.8   3444.7   3539.7   3602.3   3648.5   3779.0   3847.0
 Isp, M/SEC                 1184.3   3200.2   3315.4   3390.9   3446.4   3603.8   3686.8

 MASS FRACTIONS

 *CO              0.16816  0.15565  0.05500  0.04579  0.03983  0.03560  0.02534  0.02198
 *CO2             0.29558  0.31526  0.47345  0.48792  0.49727  0.50392  0.52005  0.52532
 COOH             0.00004  0.00003  0.00000  0.00000  0.00000  0.00000  0.00000  0.00000
 *H               0.00074  0.00063  0.00010  0.00007  0.00005  0.00004  0.00002  0.00001
 HCO              0.00002  0.00001  0.00000  0.00000  0.00000  0.00000  0.00000  0.00000
 HO2              0.00046  0.00031  0.00001  0.00000  0.00000  0.00000  0.00000  0.00000
 *H2              0.00445  0.00406  0.00152  0.00130  0.00117  0.00107  0.00085  0.00082
 HCOOH            0.00001  0.00000  0.00000  0.00000  0.00000  0.00000  0.00000  0.00000
 H2O              0.37806  0.38673  0.43835  0.44200  0.44429  0.44589  0.44961  0.45057
 H2O2             0.00007  0.00005  0.00000  0.00000  0.00000  0.00000  0.00000  0.00000
 *O               0.01073  0.00886  0.00076  0.00046  0.00031  0.00021  0.00004  0.00001
 *OH              0.06374  0.05575  0.01060  0.00776  0.00600  0.00479  0.00184  0.00076
 *O2              0.07795  0.07265  0.02024  0.01470  0.01107  0.00847  0.00225  0.00053

  * THERMODYNAMIC PROPERTIES FITTED TO 20000.K

 NOTE. WEIGHT FRACTION OF FUEL IN TOTAL FUELS AND OF OXIDANT IN TOTAL OXIDANTS

              THEORETICAL ROCKET PERFORMANCE ASSUMING EQUILIBRIUM

           COMPOSITION DURING EXPANSION FROM INFINITE AREA COMBUSTOR

 Pin =  1813.0 PSIA
 CASE = _______________

             REACTANT                    WT FRACTION      ENERGY      TEMP
                                          (SEE NOTE)     KJ/KG-MOL      K  
 FUEL        CH4                          1.0000000    -79266.074    161.000
 OXIDANT     O2(L)                        1.0000000    -12979.000     90.170

 O/F=    4.00000  %FUEL= 20.000000  R,EQ.RATIO= 0.997316  PHI,EQ.RATIO= 0.997316

                 CHAMBER   THROAT     EXIT     EXIT     EXIT     EXIT     EXIT     EXIT
 Pinf/P            1.0000   1.7260   7.4616   13.285   19.572   26.223   63.203   104.31
 P, BAR            125.00   72.421   16.752   9.4091   6.3868   4.7668   1.9777   1.1984
 T, K             3657.94  3484.15  3075.34  2932.36  2840.83  2773.78  2580.96  2475.60
 RHO, KG/CU M    9.5321 0 5.8753 0 1.5925 0 9.4980-1 6.7087-1 5.1584-1 2.3389-1 1.4906-1
 H, KJ/KG        -1312.69 -2006.65 -3674.03 -4262.94 -4639.22 -4913.63 -5691.46 -6104.59
 U, KJ/KG        -2624.05 -3239.28 -4725.97 -5253.58 -5591.24 -5837.71 -6537.03 -6908.55
 G, KJ/KG        -43234.6 -41936.8 -38919.0 -37869.4 -37196.6 -36702.6 -35270.6 -34476.3
 S, KJ/(KG)(K)    11.4605  11.4605  11.4605  11.4605  11.4605  11.4605  11.4605  11.4605

 M, (1/n)          23.193   23.502   24.307   24.612   24.811   24.957   25.379   25.602
 MW, MOL WT        23.193   23.502   24.307   24.612   24.811   24.957   25.379   25.602
 (dLV/dLP)t      -1.04238 -1.03893 -1.02968 -1.02608 -1.02370 -1.02192 -1.01676 -1.01397
 (dLV/dLT)p        1.7391   1.7150   1.6221   1.5749   1.5402   1.5124   1.4225   1.3679
 Cp, KJ/(KG)(K)    6.8890   6.9000   6.6784   6.4838   6.3181   6.1743   5.6479   5.2891
 GAMMAs            1.1300   1.1260   1.1174   1.1150   1.1137   1.1130   1.1119   1.1123
 SON VEL,M/SEC     1217.3   1178.1   1084.2   1051.0   1029.7   1014.1    969.6    945.6
 MACH NUMBER        0.000    1.000    2.004    2.311    2.505    2.646    3.052    3.274

 TRANSPORT PROPERTIES (GASES ONLY)
   CONDUCTIVITY IN UNITS OF MILLIWATTS/(CM)(K)

 VISC,MILLIPOISE   1.1746   1.1390   1.0541   1.0237   1.0040  0.98941  0.94638  0.92204

  WITH EQUILIBRIUM REACTIONS

 Cp, KJ/(KG)(K)    6.8890   6.9000   6.6784   6.4838   6.3181   6.1743   5.6479   5.2891
 CONDUCTIVITY     14.9502  14.3641  12.4359  11.5488  10.9184  10.4261   8.8775   7.9646
 PRANDTL NUMBER    0.5413   0.5471   0.5661   0.5747   0.5810   0.5859   0.6021   0.6123

  WITH FROZEN REACTIONS

 Cp, KJ/(KG)(K)    2.2180   2.2079   2.1804   2.1689   2.1608   2.1545   2.1341   2.1212
 CONDUCTIVITY      3.7833   3.6298   3.2629   3.1316   3.0463   2.9831   2.7974   2.6927
 PRANDTL NUMBER    0.6886   0.6928   0.7044   0.7090   0.7122   0.7146   0.7220   0.7264

 PERFORMANCE PARAMETERS

 Ae/At                      1.0000   2.0000   3.0000   4.0000   5.0000   10.000   15.000
 CSTAR, M/SEC               1805.9   1805.9   1805.9   1805.9   1805.9   1805.9   1805.9
 CF                         0.6524   1.2034   1.3451   1.4283   1.4860   1.6387   1.7142
 Ivac, M/SEC                2224.4   2657.2   2836.9   2948.4   3028.0   3245.0   3355.5
 Isp, M/SEC                 1178.1   2173.2   2429.1   2579.4   2683.6   2959.3   3095.8

 MASS FRACTIONS

 *CO              0.15819  0.14563  0.11124  0.09771  0.08872  0.08201  0.06247  0.05192
 *CO2             0.30004  0.31980  0.37387  0.39514  0.40926  0.41980  0.45051  0.46709
 COOH             0.00004  0.00002  0.00001  0.00000  0.00000  0.00000  0.00000  0.00000
 *H               0.00070  0.00060  0.00037  0.00029  0.00025  0.00022  0.00014  0.00011
 HCO              0.00001  0.00001  0.00000  0.00000  0.00000  0.00000  0.00000  0.00000
 HO2              0.00049  0.00033  0.00011  0.00007  0.00005  0.00004  0.00002  0.00001
 *H2              0.00406  0.00369  0.00278  0.00244  0.00223  0.00207  0.00161  0.00137
 HCOOH            0.00001  0.00000  0.00000  0.00000  0.00000  0.00000  0.00000  0.00000
 H2O              0.37220  0.38068  0.40089  0.40788  0.41227  0.41543  0.42413  0.42856
 H2O2             0.00008  0.00005  0.00001  0.00001  0.00001  0.00000  0.00000  0.00000
 *O               0.01126  0.00935  0.00530  0.00408  0.00338  0.00290  0.00174  0.00124
 *OH              0.06471  0.05676  0.03806  0.03176  0.02786  0.02510  0.01769  0.01408
 *O2              0.08820  0.08306  0.06736  0.06061  0.05597  0.05242  0.04168  0.03564

  * THERMODYNAMIC PROPERTIES FITTED TO 20000.K

 NOTE. WEIGHT FRACTION OF FUEL IN TOTAL FUELS AND OF OXIDANT IN TOTAL OXIDANTS

              THEORETICAL ROCKET PERFORMANCE ASSUMING EQUILIBRIUM

           COMPOSITION DURING EXPANSION FROM INFINITE AREA COMBUSTOR

 Pin =  1813.0 PSIA
 CASE = _______________

             REACTANT                    WT FRACTION      ENERGY      TEMP
                                          (SEE NOTE)     KJ/KG-MOL      K  
 FUEL        CH4                          1.0000000    -79266.074    161.000
 OXIDANT     O2(L)                        1.0000000    -12979.000     90.170

 O/F=    4.00000  %FUEL= 20.000000  R,EQ.RATIO= 0.997316  PHI,EQ.RATIO= 0.997316

                 CHAMBER   THROAT     EXIT     EXIT     EXIT     EXIT     EXIT     EXIT
 Pinf/P            1.0000   1.7260   148.23   242.22   342.46   447.61  1026.30  1668.79
 P, BAR            125.00   72.421  0.84329  0.51605  0.36501  0.27926  0.12180  0.07490
 T, K             3657.94  3484.15  2402.98  2302.47  2231.79  2176.95  2003.83  1898.57
 RHO, KG/CU M    9.5321 0 5.8753 0 1.0869-1 6.9941-2 5.1286-2 4.0368-2 1.9303-2 1.2581-2
 H, KJ/KG        -1312.69 -2006.65 -6382.15 -6753.79 -7004.75 -7192.65 -7741.40 -8039.50
 U, KJ/KG        -2624.05 -3239.28 -7158.02 -7491.62 -7716.46 -7884.44 -8372.36 -8634.90
 G, KJ/KG        -43234.6 -41936.8 -33921.5 -33141.3 -32582.2 -32141.6 -30706.3 -29798.1
 S, KJ/(KG)(K)    11.4605  11.4605  11.4605  11.4605  11.4605  11.4605  11.4605  11.4605

 M, (1/n)          23.193   23.502   25.751   25.946   26.073   26.164   26.406   26.513
 MW, MOL WT        23.193   23.502   25.751   25.946   26.073   26.164   26.406   26.513
 (dLV/dLP)t      -1.04238 -1.03893 -1.01211 -1.00965 -1.00803 -1.00687 -1.00378 -1.00241
 (dLV/dLT)p        1.7391   1.7150   1.3288   1.2739   1.2356   1.2067   1.1239   1.0832
 Cp, KJ/(KG)(K)    6.8890   6.9000   5.0149   4.6057   4.3035   4.0649   3.3287   2.9279
 GAMMAs            1.1300   1.1260   1.1131   1.1152   1.1174   1.1198   1.1308   1.1406
 SON VEL,M/SEC     1217.3   1178.1    929.3    907.1    891.8    880.1    844.7    824.1
 MACH NUMBER        0.000    1.000    3.426    3.637    3.783    3.896    4.245    4.451

 TRANSPORT PROPERTIES (GASES ONLY)
   CONDUCTIVITY IN UNITS OF MILLIWATTS/(CM)(K)

 VISC,MILLIPOISE   1.1746   1.1390  0.90482  0.88030  0.86251  0.84836  0.80150  0.77127

  WITH EQUILIBRIUM REACTIONS

 Cp, KJ/(KG)(K)    6.8890   6.9000   5.0149   4.6057   4.3035   4.0649   3.3287   2.9279
 CONDUCTIVITY     14.9502  14.3641   7.3191   6.4206   5.7978   5.3272   3.9710   3.2823
 PRANDTL NUMBER    0.5413   0.5471   0.6200   0.6315   0.6402   0.6473   0.6719   0.6880

  WITH FROZEN REACTIONS

 Cp, KJ/(KG)(K)    2.2180   2.2079   2.1116   2.0970   2.0859   2.0766   2.0438   2.0209
 CONDUCTIVITY      3.7833   3.6298   2.6189   2.5144   2.4390   2.3795   2.1848   2.0617
 PRANDTL NUMBER    0.6886   0.6928   0.7296   0.7342   0.7376   0.7404   0.7498   0.7560

 PERFORMANCE PARAMETERS

 Ae/At                      1.0000   20.000   30.000   40.000   50.000   100.00   150.00
 CSTAR, M/SEC               1805.9   1805.9   1805.9   1805.9   1805.9   1805.9   1805.9
 CF                         0.6524   1.7632   1.8267   1.8683   1.8989   1.9855   2.0310
 Ivac, M/SEC                2224.4   3427.8   3522.5   3585.0   3631.0   3761.7   3830.2
 Isp, M/SEC                 1178.1   3184.2   3298.8   3374.0   3429.3   3585.7   3667.9

 MASS FRACTIONS

 *CO              0.15819  0.14563  0.04485  0.03553  0.02942  0.02500  0.01333  0.00816
 *CO2             0.30004  0.31980  0.47820  0.49284  0.50244  0.50938  0.52772  0.53583
 COOH             0.00004  0.00002  0.00000  0.00000  0.00000  0.00000  0.00000  0.00000
 *H               0.00070  0.00060  0.00009  0.00006  0.00004  0.00004  0.00001  0.00001
 HCO              0.00001  0.00001  0.00000  0.00000  0.00000  0.00000  0.00000  0.00000
 HO2              0.00049  0.00033  0.00001  0.00000  0.00000  0.00000  0.00000  0.00000
 *H2              0.00406  0.00369  0.00120  0.00098  0.00084  0.00073  0.00043  0.00028
 HCOOH            0.00001  0.00000  0.00000  0.00000  0.00000  0.00000  0.00000  0.00000
 H2O              0.37220  0.38068  0.43143  0.43512  0.43749  0.43918  0.44362  0.44562
 H2O2             0.00008  0.00005  0.00000  0.00000  0.00000  0.00000  0.00000  0.00000
 *O               0.01126  0.00935  0.00095  0.00063  0.00045  0.00034  0.00012  0.00005
 *OH              0.06471  0.05676  0.01180  0.00897  0.00722  0.00601  0.00304  0.00184
 *O2              0.08820  0.08306  0.03148  0.02587  0.02210  0.01932  0.01173  0.00820

  * THERMODYNAMIC PROPERTIES FITTED TO 20000.K

 NOTE. WEIGHT FRACTION OF FUEL IN TOTAL FUELS AND OF OXIDANT IN TOTAL OXIDANTS
