



         NASA-GLENN CHEMICAL EQUILIBRIUM PROGRAM CEA2, FEBRUARY 5, 2004
                   BY  BONNIE MCBRIDE AND SANFORD GORDON
      REFS: NASA RP-1311, PART I, 1994 AND NASA RP-1311, PART II, 1996

 *******************************************************************************

  
 ### CEA analysis performed on Wed 08-Mar-2023 08:16:06
  
 # Problem Type: "Rocket" (Infinite Area Combustor)
  
 prob case=_______________7783 ro equilibrium
  
 # Pressure (1 value):
 p,bar= 125
 # Supersonic Area Ratio (11 values):
 supar= 2, 3, 4, 5, 6, 7, 8, 9, 10, 15, 20
  
 # Oxidizer/Fuel Wt. ratio (1 value):
 o/f= 3.6
  
 # You selected the following fuels and oxidizers:
 reac
 fuel CH4               wt%=100.0000  t,k= 161.000
 oxid O2(L)             wt%=100.0000
  
 # You selected these options for output:
 # short version of output
 output short
 # Proportions of any products will be expressed as Mass Fractions.
 output massf
 # Heat will be expressed as siunits
 output siunits
 # Transport properties calculated
 output transport
  
  
 # Input prepared by this script:/var/www/sites/cearun.grc.nasa.gov/cgi-bin/CEARU
 N/prepareInputFile.cgi
  
 ### IMPORTANT:  The following line is the end of your CEA input file!
 end

              THEORETICAL ROCKET PERFORMANCE ASSUMING EQUILIBRIUM

           COMPOSITION DURING EXPANSION FROM INFINITE AREA COMBUSTOR

 Pin =  1813.0 PSIA
 CASE = _______________

             REACTANT                    WT FRACTION      ENERGY      TEMP
                                          (SEE NOTE)     KJ/KG-MOL      K  
 FUEL        CH4                          1.0000000    -79266.074    161.000
 OXIDANT     O2(L)                        1.0000000    -12979.000     90.170

 O/F=    3.60000  %FUEL= 21.739130  R,EQ.RATIO= 1.108129  PHI,EQ.RATIO= 1.108129

                 CHAMBER   THROAT     EXIT     EXIT     EXIT     EXIT     EXIT     EXIT
 Pinf/P            1.0000   1.7273   7.4884   13.358   19.713   26.457   33.526   40.874
 P, BAR            125.00   72.369   16.693   9.3579   6.3410   4.7246   3.7285   3.0582
 T, K             3662.66  3485.03  3063.47  2913.24  2815.43  2742.55  2684.23  2635.39
 RHO, KG/CU M    9.1444 5.6373 1.5287 9.1193-1 6.4420-1 4.9538-1 4.0107-1 3.3615-1
 H, KJ/KG        -1391.57 -2115.59 -3852.91 -4465.60 -4856.77 -5141.89 -5364.85 -5547.11
 U, KJ/KG        -2758.52 -3399.33 -4944.83 -5491.76 -5841.09 -6095.61 -6294.48 -6456.88
 G, KJ/KG        -44628.0 -43255.2 -40016.1 -38855.4 -38092.0 -37516.8 -37051.2 -36657.0
 S, KJ/(KG)(K)    11.8047  11.8047  11.8047  11.8047  11.8047  11.8047  11.8047  11.8047

 M, (1/n)          22.278   22.572   23.327   23.605   23.782   23.909   24.007   24.085
 (dLV/dLP)t      -1.04048 -1.03658 -1.02570 -1.02122 -1.01813 -1.01576 -1.01384 -1.01224
 (dLV/dLT)p        1.7030   1.6697   1.5395   1.4696   1.4160   1.3718   1.3341   1.3012
 Cp, KJ/(KG)(K)    6.8984   6.8442   6.3250   5.9346   5.5994   5.3035   5.0378   4.7967
 GAMMAs            1.1318   1.1280   1.1209   1.1198   1.1199   1.1206   1.1217   1.1231
 SON VEL,M/SEC     1243.8   1203.4   1106.3   1071.9   1049.9   1033.8   1021.2   1010.8
 MACH NUMBER        0.000    1.000    2.006    2.313    2.507    2.649    2.761    2.852

 TRANSPORT PROPERTIES (GASES ONLY)
   CONDUCTIVITY IN UNITS OF MILLIWATTS/(CM)(K)

 VISC,MILLIPOISE   1.1661   1.1298   1.0420   1.0096  0.98812  0.97176  0.95843  0.94709

  WITH EQUILIBRIUM REACTIONS

 Cp, KJ/(KG)(K)    6.8984   6.8442   6.3250   5.9346   5.5994   5.3035   5.0378   4.7967
 CONDUCTIVITY     14.7566  13.9735  11.3389  10.0778   9.1584   8.4270   7.8184   7.2979
 PRANDTL NUMBER    0.5451   0.5534   0.5812   0.5946   0.6041   0.6116   0.6176   0.6225

  WITH FROZEN REACTIONS

 Cp, KJ/(KG)(K)    2.2956   2.2847   2.2543   2.2411   2.2315   2.2239   2.2173   2.2116
 CONDUCTIVITY      3.9240   3.7575   3.3563   3.2098   3.1129   3.0398   2.9805   2.9304
 PRANDTL NUMBER    0.6822   0.6870   0.6998   0.7049   0.7083   0.7109   0.7130   0.7148

 PERFORMANCE PARAMETERS

 Ae/At                      1.0000   2.0000   3.0000   4.0000   5.0000   6.0000   7.0000
 CSTAR, M/SEC               1842.7   1842.7   1842.7   1842.7   1842.7   1842.7   1842.7
 CF                         0.6530   1.2041   1.3456   1.4287   1.4863   1.5298   1.5645
 Ivac, M/SEC                2270.2   2710.9   2893.4   3006.5   3087.0   3148.7   3198.5
 Isp, M/SEC                 1203.3   2218.7   2479.5   2632.6   2738.7   2819.0   2882.9

 MASS FRACTIONS

 *CO              0.20271  0.19080  0.15840  0.14591  0.13781  0.13191  0.12734  0.12367
 *CO2             0.27778  0.29654  0.34749  0.36711  0.37984  0.38912  0.39629  0.40206
 COOH             0.00005  0.00003  0.00001  0.00000  0.00000  0.00000  0.00000  0.00000
 *H               0.00087  0.00075  0.00046  0.00037  0.00032  0.00028  0.00025  0.00022
 HCO              0.00002  0.00001  0.00000  0.00000  0.00000  0.00000  0.00000  0.00000
 HO2              0.00033  0.00021  0.00006  0.00003  0.00002  0.00001  0.00001  0.00001
 *H2              0.00597  0.00555  0.00455  0.00421  0.00400  0.00386  0.00376  0.00368
 HCOOH            0.00001  0.00000  0.00000  0.00000  0.00000  0.00000  0.00000  0.00000
 H2O              0.39590  0.40517  0.42702  0.43438  0.43890  0.44206  0.44443  0.44628
 H2O2             0.00006  0.00004  0.00001  0.00000  0.00000  0.00000  0.00000  0.00000
 *O               0.00866  0.00693  0.00334  0.00231  0.00173  0.00136  0.00109  0.00089
 *OH              0.05860  0.05042  0.03103  0.02444  0.02034  0.01742  0.01518  0.01339
 *O2              0.04904  0.04356  0.02764  0.02123  0.01704  0.01399  0.01165  0.00980

  * THERMODYNAMIC PROPERTIES FITTED TO 20000.K

 NOTE. WEIGHT FRACTION OF FUEL IN TOTAL FUELS AND OF OXIDANT IN TOTAL OXIDANTS

              THEORETICAL ROCKET PERFORMANCE ASSUMING EQUILIBRIUM

           COMPOSITION DURING EXPANSION FROM INFINITE AREA COMBUSTOR

 Pin =  1813.0 PSIA
 CASE = _______________

             REACTANT                    WT FRACTION      ENERGY      TEMP
                                          (SEE NOTE)     KJ/KG-MOL      K  
 FUEL        CH4                          1.0000000    -79266.074    161.000
 OXIDANT     O2(L)                        1.0000000    -12979.000     90.170

 O/F=    3.60000  %FUEL= 21.739130  R,EQ.RATIO= 1.108129  PHI,EQ.RATIO= 1.108129

                 CHAMBER   THROAT     EXIT     EXIT     EXIT     EXIT     EXIT
 Pinf/P            1.0000   1.7273   48.471   56.293   64.322   107.15   153.76
 P, BAR            125.00   72.369   2.5789   2.2205   1.9433   1.1666  0.81294
 T, K             3662.66  3485.03  2593.22  2555.96  2522.47  2390.32  2291.45
 RHO, KG/CU M    9.1444 0 5.6373 0 2.8884-1 2.5289-1 2.2468-1 1.4321-1 1.0443-1
 H, KJ/KG        -1391.57 -2115.59 -5700.76 -5833.22 -5949.42 -6378.01 -6665.71
 U, KJ/KG        -2758.52 -3399.33 -6593.59 -6711.28 -6814.35 -7192.62 -7444.13
 G, KJ/KG        -44628.0 -43255.2 -36312.8 -36005.4 -35726.3 -34595.0 -33715.5
 S, KJ/(KG)(K)    11.8047  11.8047  11.8047  11.8047  11.8047  11.8047  11.8047

 M, (1/n)          22.278   22.572   24.149   24.203   24.248   24.397   24.476
 (dLV/dLP)t      -1.04048 -1.03658 -1.01087 -1.00969 -1.00865 -1.00502 -1.00301
 (dLV/dLT)p        1.7030   1.6697   1.2721   1.2461   1.2228   1.1367   1.0855
 Cp, KJ/(KG)(K)    6.8984   6.8442   4.5767   4.3751   4.1901   3.4699   3.0084
 GAMMAs            1.1318   1.1280   1.1247   1.1264   1.1283   1.1388   1.1495
 SON VEL,M/SEC     1243.8   1203.4   1002.1    994.5    987.9    963.2    945.9
 MACH NUMBER        0.000    1.000    2.930    2.997    3.056    3.279    3.433

 TRANSPORT PROPERTIES (GASES ONLY)
   CONDUCTIVITY IN UNITS OF MILLIWATTS/(CM)(K)

 VISC,MILLIPOISE   1.1661   1.1298  0.93714  0.92822  0.92010  0.88701  0.86112

  WITH EQUILIBRIUM REACTIONS

 Cp, KJ/(KG)(K)    6.8984   6.8442   4.5767   4.3751   4.1901   3.4699   3.0084
 CONDUCTIVITY     14.7566  13.9735   6.8447   6.4453   6.0900   4.7824   3.9748
 PRANDTL NUMBER    0.5451   0.5534   0.6266   0.6301   0.6331   0.6436   0.6518

  WITH FROZEN REACTIONS

 Cp, KJ/(KG)(K)    2.2956   2.2847   2.2064   2.2016   2.1971   2.1780   2.1619
 CONDUCTIVITY      3.9240   3.7575   2.8867   2.8478   2.8125   2.6707   2.5620
 PRANDTL NUMBER    0.6822   0.6870   0.7163   0.7176   0.7188   0.7234   0.7267

 PERFORMANCE PARAMETERS

 Ae/At                      1.0000   8.0000   9.0000   10.000   15.000   20.000
 CSTAR, M/SEC               1842.7   1842.7   1842.7   1842.7   1842.7   1842.7
 CF                         0.6530   1.5932   1.6175   1.6385   1.7138   1.7626
 Ivac, M/SEC                2270.2   3239.8   3275.1   3305.7   3415.9   3487.5
 Isp, M/SEC                 1203.3   2935.7   2980.5   3019.2   3158.0   3247.8

 MASS FRACTIONS

 *CO              0.20271  0.19080  0.12065  0.11811  0.11594  0.10862  0.10448
 *CO2             0.27778  0.29654  0.40681  0.41080  0.41421  0.42571  0.43222
 COOH             0.00005  0.00003  0.00000  0.00000  0.00000  0.00000  0.00000
 *H               0.00087  0.00075  0.00020  0.00019  0.00017  0.00012  0.00009
 HCO              0.00002  0.00001  0.00000  0.00000  0.00000  0.00000  0.00000
 HO2              0.00033  0.00021  0.00001  0.00000  0.00000  0.00000  0.00000
 *H2              0.00597  0.00555  0.00362  0.00357  0.00354  0.00346  0.00347
 HCOOH            0.00001  0.00000  0.00000  0.00000  0.00000  0.00000  0.00000
 H2O              0.39590  0.40517  0.44777  0.44899  0.45001  0.45314  0.45449
 H2O2             0.00006  0.00004  0.00000  0.00000  0.00000  0.00000  0.00000
 *O               0.00866  0.00693  0.00074  0.00061  0.00052  0.00023  0.00011
 *OH              0.05860  0.05042  0.01191  0.01067  0.00960  0.00592  0.00381
 *O2              0.04904  0.04356  0.00829  0.00705  0.00601  0.00280  0.00135

  * THERMODYNAMIC PROPERTIES FITTED TO 20000.K

 NOTE. WEIGHT FRACTION OF FUEL IN TOTAL FUELS AND OF OXIDANT IN TOTAL OXIDANTS

