



         NASA-GLENN CHEMICAL EQUILIBRIUM PROGRAM CEA2, FEBRUARY 5, 2004
                   BY  BONNIE MCBRIDE AND SANFORD GORDON
      REFS: NASA RP-1311, PART I, 1994 AND NASA RP-1311, PART II, 1996

 *******************************************************************************

  
 ### CEA analysis performed on Wed 08-Mar-2023 08:12:09
  
 # Problem Type: "Rocket" (Infinite Area Combustor)
  
 prob case=_______________7783 ro equilibrium
  
 # Pressure (1 value):
 p,bar= 125
 # Supersonic Area Ratio (13 values):
 supar= 20, 30, 40, 50, 60, 70, 80, 90, 100, 150, 200, 250, 300
  
 # Oxidizer/Fuel Wt. ratio (1 value):
 o/f= 3.6
  
 # You selected the following fuels and oxidizers:
 reac
 fuel CH4               wt%=100.0000  t,k= 161.000
 oxid O2(L)             wt%=100.0000
  
 # You selected these options for output:
 # short version of output
 output short
 # Proportions of any products will be expressed as Mass Fractions.
 output massf
 # Heat will be expressed as siunits
 output siunits
 # Transport properties calculated
 output transport
  
  
 # Input prepared by this script:/var/www/sites/cearun.grc.nasa.gov/cgi-bin/CEARU
 N/prepareInputFile.cgi
  
 ### IMPORTANT:  The following line is the end of your CEA input file!
 end

              THEORETICAL ROCKET PERFORMANCE ASSUMING EQUILIBRIUM

           COMPOSITION DURING EXPANSION FROM INFINITE AREA COMBUSTOR

 Pin =  1813.0 PSIA
 CASE = _______________

             REACTANT                    WT FRACTION      ENERGY      TEMP
                                          (SEE NOTE)     KJ/KG-MOL      K  
 FUEL        CH4                          1.0000000    -79266.074    161.000
 OXIDANT     O2(L)                        1.0000000    -12979.000     90.170

 O/F=    3.60000  %FUEL= 21.739130  R,EQ.RATIO= 1.108129  PHI,EQ.RATIO= 1.108129

                 CHAMBER   THROAT     EXIT     EXIT     EXIT     EXIT     EXIT     EXIT
 Pinf/P            1.0000   1.7273   153.76   256.10   368.17   488.03   614.38   746.32
 P, BAR            125.00   72.369  0.81293  0.48810  0.33952  0.25613  0.20346  0.16749
 T, K             3662.66  3485.03  2291.45  2143.60  2034.88  1950.40  1882.18  1825.43
 RHO, KG/CU M    9.1444 5.6373 1.0443-1 6.7220-2 4.9308-2 3.8828-2 3.1969-2 2.7138-2
 H, KJ/KG        -1391.57 -2115.59 -6665.71 -7049.52 -7306.28 -7496.25 -7645.44 -7767.38
 U, KJ/KG        -2758.52 -3399.33 -7444.13 -7775.64 -7994.83 -8155.90 -8281.87 -8384.54
 G, KJ/KG        -44628.0 -43255.2 -33715.5 -32354.0 -31327.3 -30520.0 -29863.9 -29316.0
 S, KJ/(KG)(K)    11.8047  11.8047  11.8047  11.8047  11.8047  11.8047  11.8047  11.8047

 M, (1/n)          22.278   22.572   24.476   24.546   24.572   24.583   24.589   24.592
 (dLV/dLP)t      -1.04048 -1.03658 -1.00301 -1.00122 -1.00059 -1.00032 -1.00019 -1.00013
 (dLV/dLT)p        1.7030   1.6697   1.0855   1.0368   1.0184   1.0104   1.0064   1.0042
 Cp, KJ/(KG)(K)    6.8984   6.8442   3.0084   2.5337   2.3329   2.2344   2.1786   2.1433
 GAMMAs            1.1318   1.1280   1.1495   1.1662   1.1763   1.1823   1.1863   1.1890
 SON VEL,M/SEC     1243.8   1203.4    945.9    920.2    900.0    883.1    868.9    856.6
 MACH NUMBER        0.000    1.000    3.433    3.656    3.822    3.957    4.070    4.169

 TRANSPORT PROPERTIES (GASES ONLY)
   CONDUCTIVITY IN UNITS OF MILLIWATTS/(CM)(K)

 VISC,MILLIPOISE   1.1661   1.1298  0.86112  0.82078  0.79008  0.76571  0.74571  0.72887

  WITH EQUILIBRIUM REACTIONS

 Cp, KJ/(KG)(K)    6.8984   6.8442   3.0084   2.5337   2.3329   2.2344   2.1786   2.1433
 CONDUCTIVITY     14.7566  13.9735   3.9748   3.1071   2.6865   2.4464   2.2907   2.1802
 PRANDTL NUMBER    0.5451   0.5534   0.6518   0.6693   0.6861   0.6994   0.7092   0.7165

  WITH FROZEN REACTIONS

 Cp, KJ/(KG)(K)    2.2956   2.2847   2.1619   2.1349   2.1128   2.0941   2.0781   2.0642
 CONDUCTIVITY      3.9240   3.7575   2.5620   2.3959   2.2719   2.1747   2.0958   2.0300
 PRANDTL NUMBER    0.6822   0.6870   0.7267   0.7314   0.7348   0.7374   0.7394   0.7411

 PERFORMANCE PARAMETERS

 Ae/At                      1.0000   20.000   30.000   40.000   50.000   60.000   70.000
 CSTAR, M/SEC               1842.7   1842.7   1842.7   1842.7   1842.7   1842.7   1842.7
 CF                         0.6530   1.7626   1.8256   1.8665   1.8963   1.9193   1.9379
 Ivac, M/SEC                2270.2   3487.5   3579.8   3639.6   3683.0   3716.6   3743.8
 Isp, M/SEC                 1203.3   3247.8   3363.9   3439.4   3494.2   3536.6   3570.9

 MASS FRACTIONS

 *CO              0.20271  0.19080  0.10448  0.09987  0.09706  0.09488  0.09302  0.09136
 *CO2             0.27778  0.29654  0.43222  0.43945  0.44388  0.44730  0.45022  0.45282
 COOH             0.00005  0.00003  0.00000  0.00000  0.00000  0.00000  0.00000  0.00000
 *H               0.00087  0.00075  0.00009  0.00005  0.00003  0.00002  0.00001  0.00001
 HCO              0.00002  0.00001  0.00000  0.00000  0.00000  0.00000  0.00000  0.00000
 HO2              0.00033  0.00021  0.00000  0.00000  0.00000  0.00000  0.00000  0.00000
 *H2              0.00597  0.00555  0.00347  0.00357  0.00371  0.00385  0.00397  0.00409
 HCOOH            0.00001  0.00000  0.00000  0.00000  0.00000  0.00000  0.00000  0.00000
 H2O              0.39590  0.40517  0.45449  0.45497  0.45436  0.45346  0.45249  0.45155
 H2O2             0.00006  0.00004  0.00000  0.00000  0.00000  0.00000  0.00000  0.00000
 *O               0.00866  0.00693  0.00011  0.00003  0.00001  0.00000  0.00000  0.00000
 *OH              0.05860  0.05042  0.00381  0.00172  0.00085  0.00046  0.00027  0.00017
 *O2              0.04904  0.04356  0.00135  0.00034  0.00010  0.00003  0.00001  0.00001

  * THERMODYNAMIC PROPERTIES FITTED TO 20000.K

 NOTE. WEIGHT FRACTION OF FUEL IN TOTAL FUELS AND OF OXIDANT IN TOTAL OXIDANTS

              THEORETICAL ROCKET PERFORMANCE ASSUMING EQUILIBRIUM

           COMPOSITION DURING EXPANSION FROM INFINITE AREA COMBUSTOR

 Pin =  1813.0 PSIA
 CASE = _______________

             REACTANT                    WT FRACTION      ENERGY      TEMP
                                          (SEE NOTE)     KJ/KG-MOL      K  
 FUEL        CH4                          1.0000000    -79266.074    161.000
 OXIDANT     O2(L)                        1.0000000    -12979.000     90.170

 O/F=    3.60000  %FUEL= 21.739130  R,EQ.RATIO= 1.108129  PHI,EQ.RATIO= 1.108129

                 CHAMBER   THROAT     EXIT     EXIT     EXIT     EXIT     EXIT     EXIT
 Pinf/P            1.0000   1.7273   883.21  1024.53  1169.90  1947.76  2794.29  3695.46
 P, BAR            125.00   72.369  0.14153  0.12201  0.10685  0.06418  0.04473  0.03383
 T, K             3662.66  3485.03  1777.13  1735.26  1698.41  1562.30  1471.30  1403.86
 RHO, KG/CU M    9.1444 0 5.6373 0 2.3557-2 2.0799-2 1.8610-2 1.2153-2 8.9951-3 7.1283-3
 H, KJ/KG        -1391.57 -2115.59 -7869.93 -7958.05 -8035.05 -8315.86 -8500.84 -8636.65
 U, KJ/KG        -2758.52 -3399.33 -8470.72 -8544.65 -8609.18 -8843.94 -8998.16 -9111.17
 G, KJ/KG        -44628.0 -43255.2 -28848.4 -28442.2 -28084.3 -26758.3 -25869.0 -25208.8
 S, KJ/(KG)(K)    11.8047  11.8047  11.8047  11.8047  11.8047  11.8047  11.8047  11.8047

 M, (1/n)          22.278   22.572   24.594   24.596   24.596   24.598   24.598   24.598
 (dLV/dLP)t      -1.04048 -1.03658 -1.00008 -1.00006 -1.00004 -1.00001 -1.00000 -1.00000
 (dLV/dLT)p        1.7030   1.6697   1.0029   1.0021   1.0015   1.0005   1.0002   1.0001
 Cp, KJ/(KG)(K)    6.8984   6.8442   2.1189   2.1008   2.0868   2.0450   2.0221   2.0064
 GAMMAs            1.1318   1.1280   1.1910   1.1926   1.1940   1.1982   1.2008   1.2026
 SON VEL,M/SEC     1243.8   1203.4    845.9    836.4    827.9    795.5    772.8    755.4
 MACH NUMBER        0.000    1.000    4.255    4.333    4.403    4.678    4.880    5.039

 TRANSPORT PROPERTIES (GASES ONLY)
   CONDUCTIVITY IN UNITS OF MILLIWATTS/(CM)(K)

 VISC,MILLIPOISE   1.1661   1.1298  0.71439  0.70171  0.69046  0.64814  0.61911  0.59719

  WITH EQUILIBRIUM REACTIONS

 Cp, KJ/(KG)(K)    6.8984   6.8442   2.1189   2.1008   2.0868   2.0450   2.0221   2.0064
 CONDUCTIVITY     14.7566  13.9735   2.0965   2.0301   1.9755   1.7960   1.6885   1.6126
 PRANDTL NUMBER    0.5451   0.5534   0.7220   0.7261   0.7294   0.7380   0.7414   0.7430

  WITH FROZEN REACTIONS

 Cp, KJ/(KG)(K)    2.2956   2.2847   2.0518   2.0407   2.0306   1.9908   1.9619   1.9392
 CONDUCTIVITY      3.9240   3.7575   1.9739   1.9252   1.8823   1.7240   1.6185   1.5408
 PRANDTL NUMBER    0.6822   0.6870   0.7426   0.7438   0.7449   0.7485   0.7505   0.7516

 PERFORMANCE PARAMETERS

 Ae/At                      1.0000   80.000   90.000   100.00   150.00   200.00   250.00
 CSTAR, M/SEC               1842.7   1842.7   1842.7   1842.7   1842.7   1842.7   1842.7
 CF                         0.6530   1.9534   1.9667   1.9782   2.0196   2.0464   2.0658
 Ivac, M/SEC                2270.2   3766.5   3785.8   3802.6   3863.3   3902.6   3931.3
 Isp, M/SEC                 1203.3   3599.5   3623.9   3645.1   3721.4   3770.7   3806.6

 MASS FRACTIONS

 *CO              0.20271  0.19080  0.08985  0.08845  0.08714  0.08158  0.07709  0.07329
 *CO2             0.27778  0.29654  0.45520  0.45740  0.45946  0.46820  0.47525  0.48121
 COOH             0.00005  0.00003  0.00000  0.00000  0.00000  0.00000  0.00000  0.00000
 *H               0.00087  0.00075  0.00001  0.00001  0.00000  0.00000  0.00000  0.00000
 HCO              0.00002  0.00001  0.00000  0.00000  0.00000  0.00000  0.00000  0.00000
 HO2              0.00033  0.00021  0.00000  0.00000  0.00000  0.00000  0.00000  0.00000
 *H2              0.00597  0.00555  0.00420  0.00430  0.00439  0.00479  0.00511  0.00539
 HCOOH            0.00001  0.00000  0.00000  0.00000  0.00000  0.00000  0.00000  0.00000
 H2O              0.39590  0.40517  0.45064  0.44978  0.44896  0.44542  0.44254  0.44010
 H2O2             0.00006  0.00004  0.00000  0.00000  0.00000  0.00000  0.00000  0.00000
 *O               0.00866  0.00693  0.00000  0.00000  0.00000  0.00000  0.00000  0.00000
 *OH              0.05860  0.05042  0.00011  0.00007  0.00005  0.00001  0.00000  0.00000
 *O2              0.04904  0.04356  0.00000  0.00000  0.00000  0.00000  0.00000  0.00000

  * THERMODYNAMIC PROPERTIES FITTED TO 20000.K

 NOTE. WEIGHT FRACTION OF FUEL IN TOTAL FUELS AND OF OXIDANT IN TOTAL OXIDANTS

              THEORETICAL ROCKET PERFORMANCE ASSUMING EQUILIBRIUM

           COMPOSITION DURING EXPANSION FROM INFINITE AREA COMBUSTOR

 Pin =  1813.0 PSIA
 CASE = _______________

             REACTANT                    WT FRACTION      ENERGY      TEMP
                                          (SEE NOTE)     KJ/KG-MOL      K  
 FUEL        CH4                          1.0000000    -79266.074    161.000
 OXIDANT     O2(L)                        1.0000000    -12979.000     90.170

 O/F=    3.60000  %FUEL= 21.739130  R,EQ.RATIO= 1.108129  PHI,EQ.RATIO= 1.108129

                 CHAMBER   THROAT     EXIT
 Pinf/P            1.0000   1.7273  4642.52
 P, BAR            125.00   72.369  0.02693
 T, K             3662.66  3485.03  1350.77
 RHO, KG/CU M    9.1444 0 5.6373 0 5.8972-3
 H, KJ/KG        -1391.57 -2115.59 -8742.85
 U, KJ/KG        -2758.52 -3399.33 -9199.43
 G, KJ/KG        -44628.0 -43255.2 -24688.2
 S, KJ/(KG)(K)    11.8047  11.8047  11.8047

 M, (1/n)          22.278   22.572   24.598
 (dLV/dLP)t      -1.04048 -1.03658 -1.00000
 (dLV/dLT)p        1.7030   1.6697   1.0000
 Cp, KJ/(KG)(K)    6.8984   6.8442   1.9945
 GAMMAs            1.1318   1.1280   1.2041
 SON VEL,M/SEC     1243.8   1203.4    741.4
 MACH NUMBER        0.000    1.000    5.171

 TRANSPORT PROPERTIES (GASES ONLY)
   CONDUCTIVITY IN UNITS OF MILLIWATTS/(CM)(K)

 VISC,MILLIPOISE   1.1661   1.1298  0.57966

  WITH EQUILIBRIUM REACTIONS

 Cp, KJ/(KG)(K)    6.8984   6.8442   1.9945
 CONDUCTIVITY     14.7566  13.9735   1.5545
 PRANDTL NUMBER    0.5451   0.5534   0.7438

  WITH FROZEN REACTIONS

 Cp, KJ/(KG)(K)    2.2956   2.2847   1.9206
 CONDUCTIVITY      3.9240   3.7575   1.4800
 PRANDTL NUMBER    0.6822   0.6870   0.7522

 PERFORMANCE PARAMETERS

 Ae/At                      1.0000   300.00
 CSTAR, M/SEC               1842.7   1842.7
 CF                         0.6530   2.0809
 Ivac, M/SEC                2270.2   3953.5
 Isp, M/SEC                 1203.3   3834.4

 MASS FRACTIONS

 *CO              0.20271  0.19080  0.06998
 *CO2             0.27778  0.29654  0.48642
 COOH             0.00005  0.00003  0.00000
 *H               0.00087  0.00075  0.00000
 HCO              0.00002  0.00001  0.00000
 HO2              0.00033  0.00021  0.00000
 *H2              0.00597  0.00555  0.00563
 HCOOH            0.00001  0.00000  0.00000
 H2O              0.39590  0.40517  0.43797
 H2O2             0.00006  0.00004  0.00000
 *O               0.00866  0.00693  0.00000
 *OH              0.05860  0.05042  0.00000
 *O2              0.04904  0.04356  0.00000

  * THERMODYNAMIC PROPERTIES FITTED TO 20000.K

 NOTE. WEIGHT FRACTION OF FUEL IN TOTAL FUELS AND OF OXIDANT IN TOTAL OXIDANTS

